


 31 34  0  0  0  0  0  0  0  0999 V2000
   -1.7999  -45.0632  -12.4694 O   0  0  0  0  0  0  0  0  0  0  0  0
   -1.2514  -44.4306  -13.7139 C   0  0  0  0  0  0  0  0  0  0  0  0
    0.2134  -44.5278  -14.0218 N   0  0  0  0  0  0  0  0  0  0  0  0
    0.9026  -43.9485  -15.2216 N   0  0  0  0  0  0  0  0  0  0  0  0
    2.3614  -44.2841  -15.1251 C   0  0  0  0  0  0  0  0  0  0  0  0
    2.5738  -45.0707  -13.8657 C   0  0  0  0  0  0  0  0  0  0  0  0
    3.8046  -45.6692  -13.2517 C   0  0  0  0  0  0  0  0  0  0  0  0
    3.7078  -46.4184  -11.9559 C   0  0  0  0  0  0  0  0  0  0  0  0
    2.3803  -46.5691  -11.2740 C   0  0  0  0  0  0  0  0  0  0  0  0
    1.1495  -45.9705  -11.8879 C   0  0  0  0  0  0  0  0  0  0  0  0
    1.2463  -45.2213  -13.1838 C   0  0  0  0  0  0  0  0  0  0  0  0
   -2.1679  -43.7008  -14.6508 C   0  0  0  0  0  0  0  0  0  0  0  0
   -3.2156  -44.4552  -15.4144 C   0  0  0  0  0  0  0  0  0  0  0  0
   -3.3469  -45.9394  -15.2412 Cl  0  0  0  0  0  0  0  0  0  0  0  0
   -4.1321  -43.7254  -16.3512 C   0  0  0  0  0  0  0  0  0  0  0  0
   -4.0007  -42.2412  -16.5243 C   0  0  0  0  0  0  0  0  0  0  0  0
   -2.9530  -41.4869  -15.7607 C   0  0  0  0  0  0  0  0  0  0  0  0
   -2.0366  -42.2166  -14.8239 C   0  0  0  0  0  0  0  0  0  0  0  0
   -0.9888  -41.4622  -14.0602 C   0  0  0  0  0  0  0  0  0  0  0  0
    0.0589  -40.7079  -13.2966 F   0  0  0  0  0  0  0  0  0  0  0  0
   -0.0413  -41.6108  -15.2135 F   0  0  0  0  0  0  0  0  0  0  0  0
   -1.9364  -41.3137  -12.9069 F   0  0  0  0  0  0  0  0  0  0  0  0
    3.4216  -43.9003  -16.1143 C   0  0  0  0  0  0  0  0  0  0  0  0
    3.4579  -42.5086  -16.6729 C   0  0  0  0  0  0  0  0  0  0  0  0
    4.5181  -42.1249  -17.6622 C   0  0  0  0  0  0  0  0  0  0  0  0
    5.5421  -43.1328  -18.0929 C   0  0  0  0  0  0  0  0  0  0  0  0
    5.5059  -44.5244  -17.5343 C   0  0  0  0  0  0  0  0  0  0  0  0
    4.4456  -44.9081  -16.5451 C   0  0  0  0  0  0  0  0  0  0  0  0
    6.6024  -42.7491  -19.0822 C   0  0  0  0  0  0  0  0  0  0  0  0
    7.3473  -43.8124  -19.8334 O   0  0  0  0  0  0  0  0  0  0  0  0
    6.9177  -41.3020  -19.3202 O   0  0  0  0  0  0  0  0  0  0  0  0
  1  2  2  0  0  0
  2 12  1  0  0  0
 12 13  2  0  0  0
 13 14  1  0  0  0
 13 15  1  0  0  0
 15 16  2  0  0  0
 16 17  1  0  0  0
 17 18  2  0  0  0
 18 19  1  0  0  0
 19 20  1  0  0  0
 19 21  1  0  0  0
 19 22  1  0  0  0
  2  3  1  0  0  0
  3  4  1  0  0  0
  4  5  2  0  0  0
  5 23  1  0  0  0
 23 24  2  0  0  0
 24 25  1  0  0  0
 25 26  2  0  0  0
 26 29  1  0  0  0
 29 30  1  0  0  0
 29 31  1  0  0  0
 26 27  1  0  0  0
 27 28  2  0  0  0
  5  6  1  0  0  0
  6  7  2  0  0  0
  7  8  1  0  0  0
  8  9  2  0  0  0
  9 10  1  0  0  0
 10 11  2  0  0  0
 18 12  1  0  0  0
 11  3  1  0  0  0
 28 23  1  0  0  0
 11  6  1  0  0  0
M  END
> <minimizedAffinity>
-12.03381

$$$$



 31 34  0  0  0  0  0  0  0  0999 V2000
   -1.9865  -44.8424  -12.5503 O   0  0  0  0  0  0  0  0  0  0  0  0
   -1.3816  -44.1717  -13.7477 C   0  0  0  0  0  0  0  0  0  0  0  0
    0.0859  -44.3121  -14.0246 N   0  0  0  0  0  0  0  0  0  0  0  0
    0.8281  -43.7024  -15.1767 N   0  0  0  0  0  0  0  0  0  0  0  0
    2.2698  -44.1004  -15.0620 C   0  0  0  0  0  0  0  0  0  0  0  0
    2.4186  -44.9561  -13.8390 C   0  0  0  0  0  0  0  0  0  0  0  0
    3.6087  -45.6330  -13.2264 C   0  0  0  0  0  0  0  0  0  0  0  0
    3.4491  -46.4408  -11.9726 C   0  0  0  0  0  0  0  0  0  0  0  0
    2.0994  -46.5716  -11.3314 C   0  0  0  0  0  0  0  0  0  0  0  0
    0.9093  -45.8947  -11.9440 C   0  0  0  0  0  0  0  0  0  0  0  0
    1.0689  -45.0869  -13.1978 C   0  0  0  0  0  0  0  0  0  0  0  0
   -2.2443  -43.3604  -14.6685 C   0  0  0  0  0  0  0  0  0  0  0  0
   -2.3833  -41.8818  -14.4574 C   0  0  0  0  0  0  0  0  0  0  0  0
   -1.6596  -41.2146  -13.3255 Cl  0  0  0  0  0  0  0  0  0  0  0  0
   -3.2458  -41.0705  -15.3781 C   0  0  0  0  0  0  0  0  0  0  0  0
   -3.9695  -41.7378  -16.5099 C   0  0  0  0  0  0  0  0  0  0  0  0
   -3.8305  -43.2163  -16.7210 C   0  0  0  0  0  0  0  0  0  0  0  0
   -2.9679  -44.0277  -15.8004 C   0  0  0  0  0  0  0  0  0  0  0  0
   -2.8289  -45.5062  -16.0115 C   0  0  0  0  0  0  0  0  0  0  0  0
   -2.6899  -46.9847  -16.2226 F   0  0  0  0  0  0  0  0  0  0  0  0
   -2.1444  -45.2547  -17.3223 F   0  0  0  0  0  0  0  0  0  0  0  0
   -3.5134  -45.7577  -14.7007 F   0  0  0  0  0  0  0  0  0  0  0  0
    3.3696  -43.7111  -16.0048 C   0  0  0  0  0  0  0  0  0  0  0  0
    3.4913  -42.2900  -16.4693 C   0  0  0  0  0  0  0  0  0  0  0  0
    4.5912  -41.9007  -17.4121 C   0  0  0  0  0  0  0  0  0  0  0  0
    5.5693  -42.9324  -17.8903 C   0  0  0  0  0  0  0  0  0  0  0  0
    5.4476  -44.3534  -17.4258 C   0  0  0  0  0  0  0  0  0  0  0  0
    4.3478  -44.7428  -16.4831 C   0  0  0  0  0  0  0  0  0  0  0  0
    6.6691  -42.5431  -18.8331 C   0  0  0  0  0  0  0  0  0  0  0  0
    6.4733  -41.3979  -19.7818 O   0  0  0  0  0  0  0  0  0  0  0  0
    7.9647  -43.2990  -18.8271 O   0  0  0  0  0  0  0  0  0  0  0  0
  1  2  2  0  0  0
  2 12  1  0  0  0
 12 13  2  0  0  0
 13 14  1  0  0  0
 13 15  1  0  0  0
 15 16  2  0  0  0
 16 17  1  0  0  0
 17 18  2  0  0  0
 18 19  1  0  0  0
 19 20  1  0  0  0
 19 21  1  0  0  0
 19 22  1  0  0  0
  2  3  1  0  0  0
  3  4  1  0  0  0
  4  5  2  0  0  0
  5 23  1  0  0  0
 23 24  2  0  0  0
 24 25  1  0  0  0
 25 26  2  0  0  0
 26 29  1  0  0  0
 29 30  1  0  0  0
 29 31  1  0  0  0
 26 27  1  0  0  0
 27 28  2  0  0  0
  5  6  1  0  0  0
  6  7  2  0  0  0
  7  8  1  0  0  0
  8  9  2  0  0  0
  9 10  1  0  0  0
 10 11  2  0  0  0
 18 12  1  0  0  0
 11  3  1  0  0  0
 28 23  1  0  0  0
 11  6  1  0  0  0
M  END
> <minimizedAffinity>
-10.60143

$$$$



 31 34  0  0  0  0  0  0  0  0999 V2000
   -2.1234  -45.1539  -12.6388 O   0  0  0  0  0  0  0  0  0  0  0  0
   -1.4688  -44.4776  -13.8067 C   0  0  0  0  0  0  0  0  0  0  0  0
    0.0172  -44.5680  -13.9895 N   0  0  0  0  0  0  0  0  0  0  0  0
    0.8080  -43.9472  -15.1027 N   0  0  0  0  0  0  0  0  0  0  0  0
    2.2529  -44.2906  -14.8923 C   0  0  0  0  0  0  0  0  0  0  0  0
    2.3552  -45.1237  -13.6491 C   0  0  0  0  0  0  0  0  0  0  0  0
    3.5279  -45.7483  -12.9531 C   0  0  0  0  0  0  0  0  0  0  0  0
    3.3189  -46.5444  -11.6991 C   0  0  0  0  0  0  0  0  0  0  0  0
    1.9371  -46.7158  -11.1411 C   0  0  0  0  0  0  0  0  0  0  0  0
    0.7644  -46.0912  -11.8371 C   0  0  0  0  0  0  0  0  0  0  0  0
    0.9734  -45.2952  -13.0911 C   0  0  0  0  0  0  0  0  0  0  0  0
   -2.3005  -43.7109  -14.7920 C   0  0  0  0  0  0  0  0  0  0  0  0
   -3.2056  -44.4420  -15.7388 C   0  0  0  0  0  0  0  0  0  0  0  0
   -3.2791  -45.9397  -15.7002 Cl  0  0  0  0  0  0  0  0  0  0  0  0
   -4.0371  -43.6754  -16.7240 C   0  0  0  0  0  0  0  0  0  0  0  0
   -3.9636  -42.1777  -16.7625 C   0  0  0  0  0  0  0  0  0  0  0  0
   -3.0585  -41.4466  -15.8158 C   0  0  0  0  0  0  0  0  0  0  0  0
   -2.2269  -42.2132  -14.8305 C   0  0  0  0  0  0  0  0  0  0  0  0
   -1.3218  -41.4822  -13.8838 C   0  0  0  0  0  0  0  0  0  0  0  0
   -0.4167  -40.7512  -12.9370 F   0  0  0  0  0  0  0  0  0  0  0  0
   -2.5168  -40.9820  -13.1276 F   0  0  0  0  0  0  0  0  0  0  0  0
   -0.1268  -41.9824  -14.6399 F   0  0  0  0  0  0  0  0  0  0  0  0
    3.3951  -43.8741  -15.7709 C   0  0  0  0  0  0  0  0  0  0  0  0
    3.5512  -42.4356  -16.1665 C   0  0  0  0  0  0  0  0  0  0  0  0
    4.6934  -42.0190  -17.0451 C   0  0  0  0  0  0  0  0  0  0  0  0
    5.6795  -43.0409  -17.5281 C   0  0  0  0  0  0  0  0  0  0  0  0
    5.5235  -44.4794  -17.1324 C   0  0  0  0  0  0  0  0  0  0  0  0
    4.3812  -44.8959  -16.2539 C   0  0  0  0  0  0  0  0  0  0  0  0
    6.8217  -42.6244  -18.4066 C   0  0  0  0  0  0  0  0  0  0  0  0
    6.6105  -41.5883  -19.4704 O   0  0  0  0  0  0  0  0  0  0  0  0
    8.1752  -43.2440  -18.2214 O   0  0  0  0  0  0  0  0  0  0  0  0
  1  2  2  0  0  0
  2 12  1  0  0  0
 12 13  2  0  0  0
 13 14  1  0  0  0
 13 15  1  0  0  0
 15 16  2  0  0  0
 16 17  1  0  0  0
 17 18  2  0  0  0
 18 19  1  0  0  0
 19 20  1  0  0  0
 19 21  1  0  0  0
 19 22  1  0  0  0
  2  3  1  0  0  0
  3  4  1  0  0  0
  4  5  2  0  0  0
  5 23  1  0  0  0
 23 24  2  0  0  0
 24 25  1  0  0  0
 25 26  2  0  0  0
 26 29  1  0  0  0
 29 30  1  0  0  0
 29 31  1  0  0  0
 26 27  1  0  0  0
 27 28  2  0  0  0
  5  6  1  0  0  0
  6  7  2  0  0  0
  7  8  1  0  0  0
  8  9  2  0  0  0
  9 10  1  0  0  0
 10 11  2  0  0  0
 18 12  1  0  0  0
 11  3  1  0  0  0
 28 23  1  0  0  0
 11  6  1  0  0  0
M  END
> <minimizedAffinity>
-10.44883

$$$$



 35 39  0  0  0  0  0  0  0  0999 V2000
  -28.0670   35.7568   13.9464 C   0  0  0  0  0  0  0  0  0  0  0  0
  -27.9724   34.5080   13.1207 C   0  0  0  0  0  0  0  0  0  0  0  0
  -27.6090   33.2055   13.7698 N   0  0  0  0  0  0  0  0  0  0  0  0
  -27.4406   31.8212   13.2171 C   0  0  0  0  0  0  0  0  0  0  0  0
  -27.0678   30.9119   14.3503 C   0  0  0  0  0  0  0  0  0  0  0  0
  -27.0058   31.7342   15.6033 N   0  0  0  0  0  0  0  0  0  0  0  0
  -27.3403   33.1517   15.2446 C   0  0  0  0  0  0  0  0  0  0  0  0
  -27.4349   34.4005   16.0702 C   0  0  0  0  0  0  0  0  0  0  0  0
  -27.7982   35.7030   15.4210 C   0  0  0  0  0  0  0  0  0  0  0  0
  -27.8928   36.9517   16.2468 C   0  0  0  0  0  0  0  0  0  0  0  0
  -29.8648   37.4942   13.2395 C   0  0  0  0  0  0  0  0  0  0  0  0
  -30.9359   36.6264   13.8309 O   0  0  0  0  0  0  0  0  0  0  0  0
  -28.4303   37.0594   13.2972 N   0  0  0  0  0  0  0  0  0  0  0  0
  -31.3183   42.7044   10.6431 C   0  0  0  0  0  0  0  0  0  0  0  0
  -30.9549   41.4019   11.2922 C   0  0  0  0  0  0  0  0  0  0  0  0
  -30.5864   40.2194   10.4462 N   0  0  0  0  0  0  0  0  0  0  0  0
  -30.2230   38.9167   11.0952 C   0  0  0  0  0  0  0  0  0  0  0  0
  -30.2281   38.7967   12.5904 C   0  0  0  0  0  0  0  0  0  0  0  0
  -30.5967   39.9792   13.4365 C   0  0  0  0  0  0  0  0  0  0  0  0
  -30.9600   41.2817   12.7875 N   0  0  0  0  0  0  0  0  0  0  0  0
  -27.1661   34.3467   17.5449 C   0  0  0  0  0  0  0  0  0  0  0  0
  -28.1474   33.6791   18.4623 N   0  0  0  0  0  0  0  0  0  0  0  0
  -29.3290   34.4437   18.9810 C   0  0  0  0  0  0  0  0  0  0  0  0
  -30.3103   33.7761   19.8984 C   0  0  0  0  0  0  0  0  0  0  0  0
  -30.1099   32.3440   20.2969 N   0  0  0  0  0  0  0  0  0  0  0  0
  -31.0912   31.6764   21.2143 C   0  0  0  0  0  0  0  0  0  0  0  0
  -30.8908   30.2443   21.6127 O   0  0  0  0  0  0  0  0  0  0  0  0
  -28.9282   31.5794   19.7781 C   0  0  0  0  0  0  0  0  0  0  0  0
  -28.7279   30.1473   20.1766 C   0  0  0  0  0  0  0  0  0  0  0  0
  -27.9470   32.2470   18.8608 C   0  0  0  0  0  0  0  0  0  0  0  0
  -32.2728   32.4410   21.7330 C   0  0  0  0  0  0  0  0  0  0  0  0
  -33.6254   32.5173   21.0890 C   0  0  0  0  0  0  0  0  0  0  0  0
  -34.4978   33.3870   21.9448 C   0  0  0  0  0  0  0  0  0  0  0  0
  -33.6845   33.8482   23.1178 C   0  0  0  0  0  0  0  0  0  0  0  0
  -32.3094   33.2635   22.9869 C   0  0  0  0  0  0  0  0  0  0  0  0
 14 15  1  0  0  0
 15 16  2  0  0  0
 16 17  1  0  0  0
 17 18  2  0  0  0
 18 11  1  0  0  0
 11 12  2  0  0  0
 11 13  1  0  0  0
 13  1  1  0  0  0
  1  2  2  0  0  0
  2  3  1  0  0  0
  3  4  1  0  0  0
  4  5  2  0  0  0
  5  6  1  0  0  0
  6  7  2  0  0  0
  7  8  1  0  0  0
  8 21  1  0  0  0
 21 22  1  0  0  0
 22 23  1  0  0  0
 23 24  1  0  0  0
 24 25  1  0  0  0
 25 26  1  0  0  0
 26 27  2  0  0  0
 26 31  1  0  0  0
 31 32  1  0  0  0
 32 33  1  0  0  0
 33 34  1  0  0  0
 34 35  1  0  0  0
 25 28  1  0  0  0
 28 29  1  0  0  0
 28 30  1  0  0  0
  8  9  2  0  0  0
  9 10  1  0  0  0
 18 19  1  0  0  0
 19 20  2  0  0  0
 20 15  1  0  0  0
  9  1  1  0  0  0
  7  3  1  0  0  0
 30 22  1  0  0  0
 35 31  1  0  0  0
M  END
> <minimizedAffinity>
-5.86418

$$$$



 35 39  0  0  0  0  0  0  0  0999 V2000
  -21.7760   40.6133   17.5708 C   0  0  0  0  0  0  0  0  0  0  0  0
  -21.9785   41.7622   16.6278 C   0  0  0  0  0  0  0  0  0  0  0  0
  -23.3668   42.2024   16.2693 N   0  0  0  0  0  0  0  0  0  0  0  0
  -23.8738   43.2940   15.3740 C   0  0  0  0  0  0  0  0  0  0  0  0
  -25.3731   43.2600   15.4052 C   0  0  0  0  0  0  0  0  0  0  0  0
  -25.7927   42.1475   16.3196 N   0  0  0  0  0  0  0  0  0  0  0  0
  -24.5527   41.4939   16.8537 C   0  0  0  0  0  0  0  0  0  0  0  0
  -24.3503   40.3450   17.7966 C   0  0  0  0  0  0  0  0  0  0  0  0
  -22.9619   39.9048   18.1552 C   0  0  0  0  0  0  0  0  0  0  0  0
  -22.7595   38.7559   19.0982 C   0  0  0  0  0  0  0  0  0  0  0  0
  -19.5416   41.0209   18.8323 C   0  0  0  0  0  0  0  0  0  0  0  0
  -20.0840   42.3091   19.3767 O   0  0  0  0  0  0  0  0  0  0  0  0
  -20.3876   40.1730   17.9293 N   0  0  0  0  0  0  0  0  0  0  0  0
  -13.9880   39.2599   20.2665 C   0  0  0  0  0  0  0  0  0  0  0  0
  -15.3764   39.7002   19.9079 C   0  0  0  0  0  0  0  0  0  0  0  0
  -16.5223   38.7398   20.0283 N   0  0  0  0  0  0  0  0  0  0  0  0
  -17.9108   39.1800   19.6698 C   0  0  0  0  0  0  0  0  0  0  0  0
  -18.1532   40.5806   19.1908 C   0  0  0  0  0  0  0  0  0  0  0  0
  -17.0073   41.5410   19.0705 C   0  0  0  0  0  0  0  0  0  0  0  0
  -15.6189   41.1009   19.4290 N   0  0  0  0  0  0  0  0  0  0  0  0
  -25.5362   39.6365   18.3811 C   0  0  0  0  0  0  0  0  0  0  0  0
  -26.6316   39.1418   17.4836 N   0  0  0  0  0  0  0  0  0  0  0  0
  -26.4375   37.8872   16.6848 C   0  0  0  0  0  0  0  0  0  0  0  0
  -27.5330   37.3926   15.7873 C   0  0  0  0  0  0  0  0  0  0  0  0
  -28.8224   38.1526   15.6887 N   0  0  0  0  0  0  0  0  0  0  0  0
  -29.9179   37.6580   14.7912 C   0  0  0  0  0  0  0  0  0  0  0  0
  -31.2072   38.4181   14.6926 O   0  0  0  0  0  0  0  0  0  0  0  0
  -29.0164   39.4073   16.4876 C   0  0  0  0  0  0  0  0  0  0  0  0
  -30.3058   40.1674   16.3889 C   0  0  0  0  0  0  0  0  0  0  0  0
  -27.9210   39.9020   17.3850 C   0  0  0  0  0  0  0  0  0  0  0  0
  -29.7238   36.4033   13.9924 C   0  0  0  0  0  0  0  0  0  0  0  0
  -28.8952   36.2689   12.7493 C   0  0  0  0  0  0  0  0  0  0  0  0
  -28.9836   34.8454   12.2850 C   0  0  0  0  0  0  0  0  0  0  0  0
  -29.8668   34.0999   13.2411 C   0  0  0  0  0  0  0  0  0  0  0  0
  -30.3243   35.0628   14.2964 C   0  0  0  0  0  0  0  0  0  0  0  0
 14 15  1  0  0  0
 15 16  2  0  0  0
 16 17  1  0  0  0
 17 18  2  0  0  0
 18 11  1  0  0  0
 11 12  2  0  0  0
 11 13  1  0  0  0
 13  1  1  0  0  0
  1  2  2  0  0  0
  2  3  1  0  0  0
  3  4  1  0  0  0
  4  5  2  0  0  0
  5  6  1  0  0  0
  6  7  2  0  0  0
  7  8  1  0  0  0
  8 21  1  0  0  0
 21 22  1  0  0  0
 22 23  1  0  0  0
 23 24  1  0  0  0
 24 25  1  0  0  0
 25 26  1  0  0  0
 26 27  2  0  0  0
 26 31  1  0  0  0
 31 32  1  0  0  0
 32 33  1  0  0  0
 33 34  1  0  0  0
 34 35  1  0  0  0
 25 28  1  0  0  0
 28 29  1  0  0  0
 28 30  1  0  0  0
  8  9  2  0  0  0
  9 10  1  0  0  0
 18 19  1  0  0  0
 19 20  2  0  0  0
 20 15  1  0  0  0
  9  1  1  0  0  0
  7  3  1  0  0  0
 30 22  1  0  0  0
 35 31  1  0  0  0
M  END
> <minimizedAffinity>
-5.47801

$$$$



 35 39  0  0  0  0  0  0  0  0999 V2000
  -25.8094   37.3079   15.7647 C   0  0  0  0  0  0  0  0  0  0  0  0
  -26.2084   36.9390   14.3665 C   0  0  0  0  0  0  0  0  0  0  0  0
  -27.0829   35.7441   14.1268 N   0  0  0  0  0  0  0  0  0  0  0  0
  -27.6353   35.1407   12.8696 C   0  0  0  0  0  0  0  0  0  0  0  0
  -28.4522   33.9418   13.2509 C   0  0  0  0  0  0  0  0  0  0  0  0
  -28.4047   33.8043   14.7439 N   0  0  0  0  0  0  0  0  0  0  0  0
  -27.5584   34.9182   15.2852 C   0  0  0  0  0  0  0  0  0  0  0  0
  -27.1593   35.2872   16.6833 C   0  0  0  0  0  0  0  0  0  0  0  0
  -26.2848   36.4820   16.9230 C   0  0  0  0  0  0  0  0  0  0  0  0
  -25.8857   36.8510   18.3211 C   0  0  0  0  0  0  0  0  0  0  0  0
  -25.5132   39.8843   15.9213 C   0  0  0  0  0  0  0  0  0  0  0  0
  -26.9661   40.0710   15.5985 O   0  0  0  0  0  0  0  0  0  0  0  0
  -24.9348   38.5028   16.0044 N   0  0  0  0  0  0  0  0  0  0  0  0
  -22.0150   44.6639   16.8801 C   0  0  0  0  0  0  0  0  0  0  0  0
  -22.8895   43.4690   16.6404 C   0  0  0  0  0  0  0  0  0  0  0  0
  -24.0621   43.5722   15.7107 N   0  0  0  0  0  0  0  0  0  0  0  0
  -24.9367   42.3773   15.4709 C   0  0  0  0  0  0  0  0  0  0  0  0
  -24.6386   41.0792   16.1610 C   0  0  0  0  0  0  0  0  0  0  0  0
  -23.4661   40.9760   17.0907 C   0  0  0  0  0  0  0  0  0  0  0  0
  -22.5915   42.1708   17.3304 N   0  0  0  0  0  0  0  0  0  0  0  0
  -27.6348   34.4613   17.8417 C   0  0  0  0  0  0  0  0  0  0  0  0
  -29.0541   34.5771   18.3129 N   0  0  0  0  0  0  0  0  0  0  0  0
  -29.5358   33.7344   19.4565 C   0  0  0  0  0  0  0  0  0  0  0  0
  -30.9552   33.8503   19.9277 C   0  0  0  0  0  0  0  0  0  0  0  0
  -31.8927   34.8089   19.2555 N   0  0  0  0  0  0  0  0  0  0  0  0
  -33.3121   34.9248   19.7267 C   0  0  0  0  0  0  0  0  0  0  0  0
  -34.2496   35.8835   19.0544 O   0  0  0  0  0  0  0  0  0  0  0  0
  -31.4109   35.6517   18.1119 C   0  0  0  0  0  0  0  0  0  0  0  0
  -32.3485   36.6104   17.4396 C   0  0  0  0  0  0  0  0  0  0  0  0
  -29.9916   35.5358   17.6406 C   0  0  0  0  0  0  0  0  0  0  0  0
  -33.7938   34.0821   20.8703 C   0  0  0  0  0  0  0  0  0  0  0  0
  -34.0339   34.5543   22.2736 C   0  0  0  0  0  0  0  0  0  0  0  0
  -34.5085   33.3832   23.0819 C   0  0  0  0  0  0  0  0  0  0  0  0
  -34.5617   32.1872   22.1781 C   0  0  0  0  0  0  0  0  0  0  0  0
  -34.1200   32.6192   20.8112 C   0  0  0  0  0  0  0  0  0  0  0  0
 14 15  1  0  0  0
 15 16  2  0  0  0
 16 17  1  0  0  0
 17 18  2  0  0  0
 18 11  1  0  0  0
 11 12  2  0  0  0
 11 13  1  0  0  0
 13  1  1  0  0  0
  1  2  2  0  0  0
  2  3  1  0  0  0
  3  4  1  0  0  0
  4  5  2  0  0  0
  5  6  1  0  0  0
  6  7  2  0  0  0
  7  8  1  0  0  0
  8 21  1  0  0  0
 21 22  1  0  0  0
 22 23  1  0  0  0
 23 24  1  0  0  0
 24 25  1  0  0  0
 25 26  1  0  0  0
 26 27  2  0  0  0
 26 31  1  0  0  0
 31 32  1  0  0  0
 32 33  1  0  0  0
 33 34  1  0  0  0
 34 35  1  0  0  0
 25 28  1  0  0  0
 28 29  1  0  0  0
 28 30  1  0  0  0
  8  9  2  0  0  0
  9 10  1  0  0  0
 18 19  1  0  0  0
 19 20  2  0  0  0
 20 15  1  0  0  0
  9  1  1  0  0  0
  7  3  1  0  0  0
 30 22  1  0  0  0
 35 31  1  0  0  0
M  END
> <minimizedAffinity>
-5.41629

$$$$



 35 39  0  0  0  0  0  0  0  0999 V2000
  -28.2794   34.6325   14.2176 C   0  0  0  0  0  0  0  0  0  0  0  0
  -28.0835   33.2781   13.6033 C   0  0  0  0  0  0  0  0  0  0  0  0
  -27.2461   32.2504   14.3051 N   0  0  0  0  0  0  0  0  0  0  0  0
  -26.8770   30.8415   13.9465 C   0  0  0  0  0  0  0  0  0  0  0  0
  -26.0073   30.2974   15.0408 C   0  0  0  0  0  0  0  0  0  0  0  0
  -25.8389   31.3700   16.0758 N   0  0  0  0  0  0  0  0  0  0  0  0
  -26.6045   32.5771   15.6210 C   0  0  0  0  0  0  0  0  0  0  0  0
  -26.8004   33.9315   16.2352 C   0  0  0  0  0  0  0  0  0  0  0  0
  -27.6379   34.9592   15.5334 C   0  0  0  0  0  0  0  0  0  0  0  0
  -27.8338   36.3136   16.1477 C   0  0  0  0  0  0  0  0  0  0  0  0
  -28.4579   36.7731   12.7559 C   0  0  0  0  0  0  0  0  0  0  0  0
  -26.9614   36.8582   12.6979 O   0  0  0  0  0  0  0  0  0  0  0  0
  -29.1169   35.6603   13.5158 N   0  0  0  0  0  0  0  0  0  0  0  0
  -31.8077   40.8841    9.9490 C   0  0  0  0  0  0  0  0  0  0  0  0
  -30.9703   39.8564   10.6507 C   0  0  0  0  0  0  0  0  0  0  0  0
  -29.7670   39.2763    9.9684 N   0  0  0  0  0  0  0  0  0  0  0  0
  -28.9294   38.2485   10.6701 C   0  0  0  0  0  0  0  0  0  0  0  0
  -29.2953   37.8009   12.0542 C   0  0  0  0  0  0  0  0  0  0  0  0
  -30.4986   38.3809   12.7365 C   0  0  0  0  0  0  0  0  0  0  0  0
  -31.3361   39.4086   12.0349 N   0  0  0  0  0  0  0  0  0  0  0  0
  -26.1589   34.2582   17.5512 C   0  0  0  0  0  0  0  0  0  0  0  0
  -24.9539   35.1502   17.5971 N   0  0  0  0  0  0  0  0  0  0  0  0
  -25.1074   36.6007   17.9469 C   0  0  0  0  0  0  0  0  0  0  0  0
  -23.9023   37.4928   17.9929 C   0  0  0  0  0  0  0  0  0  0  0  0
  -22.5438   36.9343   17.6891 N   0  0  0  0  0  0  0  0  0  0  0  0
  -21.3387   37.8263   17.7351 C   0  0  0  0  0  0  0  0  0  0  0  0
  -19.9802   37.2678   17.4312 O   0  0  0  0  0  0  0  0  0  0  0  0
  -22.3902   35.4837   17.3393 C   0  0  0  0  0  0  0  0  0  0  0  0
  -21.0316   34.9252   17.0355 C   0  0  0  0  0  0  0  0  0  0  0  0
  -23.5953   34.5916   17.2933 C   0  0  0  0  0  0  0  0  0  0  0  0
  -21.4922   39.2769   18.0849 C   0  0  0  0  0  0  0  0  0  0  0  0
  -21.3879   39.8681   19.4595 C   0  0  0  0  0  0  0  0  0  0  0  0
  -21.6083   41.3474   19.3457 C   0  0  0  0  0  0  0  0  0  0  0  0
  -21.8488   41.6705   17.9008 C   0  0  0  0  0  0  0  0  0  0  0  0
  -21.7771   40.3908   17.1215 C   0  0  0  0  0  0  0  0  0  0  0  0
 14 15  1  0  0  0
 15 16  2  0  0  0
 16 17  1  0  0  0
 17 18  2  0  0  0
 18 11  1  0  0  0
 11 12  2  0  0  0
 11 13  1  0  0  0
 13  1  1  0  0  0
  1  2  2  0  0  0
  2  3  1  0  0  0
  3  4  1  0  0  0
  4  5  2  0  0  0
  5  6  1  0  0  0
  6  7  2  0  0  0
  7  8  1  0  0  0
  8 21  1  0  0  0
 21 22  1  0  0  0
 22 23  1  0  0  0
 23 24  1  0  0  0
 24 25  1  0  0  0
 25 26  1  0  0  0
 26 27  2  0  0  0
 26 31  1  0  0  0
 31 32  1  0  0  0
 32 33  1  0  0  0
 33 34  1  0  0  0
 34 35  1  0  0  0
 25 28  1  0  0  0
 28 29  1  0  0  0
 28 30  1  0  0  0
  8  9  2  0  0  0
  9 10  1  0  0  0
 18 19  1  0  0  0
 19 20  2  0  0  0
 20 15  1  0  0  0
  9  1  1  0  0  0
  7  3  1  0  0  0
 30 22  1  0  0  0
 35 31  1  0  0  0
M  END
> <minimizedAffinity>
-5.41504

$$$$



 35 39  0  0  0  0  0  0  0  0999 V2000
  -24.5573   34.3215   17.6161 C   0  0  0  0  0  0  0  0  0  0  0  0
  -24.5588   32.9979   16.9102 C   0  0  0  0  0  0  0  0  0  0  0  0
  -25.6912   32.6376   15.9948 N   0  0  0  0  0  0  0  0  0  0  0  0
  -25.9644   31.4153   15.1692 C   0  0  0  0  0  0  0  0  0  0  0  0
  -27.2639   31.6231   14.4496 C   0  0  0  0  0  0  0  0  0  0  0  0
  -27.7939   32.9737   14.8304 N   0  0  0  0  0  0  0  0  0  0  0  0
  -26.8219   33.6007   15.7853 C   0  0  0  0  0  0  0  0  0  0  0  0
  -26.8203   34.9242   16.4913 C   0  0  0  0  0  0  0  0  0  0  0  0
  -25.6879   35.2845   17.4067 C   0  0  0  0  0  0  0  0  0  0  0  0
  -25.6864   36.6081   18.1126 C   0  0  0  0  0  0  0  0  0  0  0  0
  -22.0318   34.8043   17.9891 C   0  0  0  0  0  0  0  0  0  0  0  0
  -21.7710   34.5663   16.5312 O   0  0  0  0  0  0  0  0  0  0  0  0
  -23.4249   34.6819   18.5316 N   0  0  0  0  0  0  0  0  0  0  0  0
  -17.5023   36.2456   21.6506 C   0  0  0  0  0  0  0  0  0  0  0  0
  -18.6346   35.8853   20.7352 C   0  0  0  0  0  0  0  0  0  0  0  0
  -19.7691   36.8452   20.5317 N   0  0  0  0  0  0  0  0  0  0  0  0
  -20.9016   36.4849   19.6163 C   0  0  0  0  0  0  0  0  0  0  0  0
  -20.8994   35.1646   18.9044 C   0  0  0  0  0  0  0  0  0  0  0  0
  -19.7649   34.2047   19.1079 C   0  0  0  0  0  0  0  0  0  0  0  0
  -18.6326   34.5650   20.0232 N   0  0  0  0  0  0  0  0  0  0  0  0
  -27.9510   35.8873   16.2819 C   0  0  0  0  0  0  0  0  0  0  0  0
  -29.2254   35.7277   17.0567 N   0  0  0  0  0  0  0  0  0  0  0  0
  -29.2769   34.7976   18.2324 C   0  0  0  0  0  0  0  0  0  0  0  0
  -30.5514   34.6380   19.0072 C   0  0  0  0  0  0  0  0  0  0  0  0
  -31.7743   35.4084   18.6063 N   0  0  0  0  0  0  0  0  0  0  0  0
  -33.0488   35.2488   19.3811 C   0  0  0  0  0  0  0  0  0  0  0  0
  -34.2717   36.0193   18.9801 O   0  0  0  0  0  0  0  0  0  0  0  0
  -31.7228   36.3385   17.4305 C   0  0  0  0  0  0  0  0  0  0  0  0
  -32.9458   37.1090   17.0296 C   0  0  0  0  0  0  0  0  0  0  0  0
  -30.4484   36.4982   16.6557 C   0  0  0  0  0  0  0  0  0  0  0  0
  -33.1002   34.3188   20.5568 C   0  0  0  0  0  0  0  0  0  0  0  0
  -33.7132   32.9498   20.5718 C   0  0  0  0  0  0  0  0  0  0  0  0
  -33.5395   32.3793   21.9482 C   0  0  0  0  0  0  0  0  0  0  0  0
  -32.8193   33.3956   22.7838 C   0  0  0  0  0  0  0  0  0  0  0  0
  -32.5478   34.5943   21.9238 C   0  0  0  0  0  0  0  0  0  0  0  0
 14 15  1  0  0  0
 15 16  2  0  0  0
 16 17  1  0  0  0
 17 18  2  0  0  0
 18 11  1  0  0  0
 11 12  2  0  0  0
 11 13  1  0  0  0
 13  1  1  0  0  0
  1  2  2  0  0  0
  2  3  1  0  0  0
  3  4  1  0  0  0
  4  5  2  0  0  0
  5  6  1  0  0  0
  6  7  2  0  0  0
  7  8  1  0  0  0
  8 21  1  0  0  0
 21 22  1  0  0  0
 22 23  1  0  0  0
 23 24  1  0  0  0
 24 25  1  0  0  0
 25 26  1  0  0  0
 26 27  2  0  0  0
 26 31  1  0  0  0
 31 32  1  0  0  0
 32 33  1  0  0  0
 33 34  1  0  0  0
 34 35  1  0  0  0
 25 28  1  0  0  0
 28 29  1  0  0  0
 28 30  1  0  0  0
  8  9  2  0  0  0
  9 10  1  0  0  0
 18 19  1  0  0  0
 19 20  2  0  0  0
 20 15  1  0  0  0
  9  1  1  0  0  0
  7  3  1  0  0  0
 30 22  1  0  0  0
 35 31  1  0  0  0
M  END
> <minimizedAffinity>
-5.28018

$$$$



 35 39  0  0  0  0  0  0  0  0999 V2000
  -23.7705   36.2613   17.0833 C   0  0  0  0  0  0  0  0  0  0  0  0
  -24.7007   35.0976   16.9081 C   0  0  0  0  0  0  0  0  0  0  0  0
  -25.7896   35.1564   15.8781 N   0  0  0  0  0  0  0  0  0  0  0  0
  -26.8492   34.1720   15.4805 C   0  0  0  0  0  0  0  0  0  0  0  0
  -27.6627   34.7861   14.3799 C   0  0  0  0  0  0  0  0  0  0  0  0
  -27.1059   36.1499   14.0974 N   0  0  0  0  0  0  0  0  0  0  0  0
  -25.9482   36.3788   15.0233 C   0  0  0  0  0  0  0  0  0  0  0  0
  -25.0179   37.5424   15.1986 C   0  0  0  0  0  0  0  0  0  0  0  0
  -23.9291   37.4836   16.2286 C   0  0  0  0  0  0  0  0  0  0  0  0
  -22.9988   38.6473   16.4038 C   0  0  0  0  0  0  0  0  0  0  0  0
  -21.4424   35.3993   17.8498 C   0  0  0  0  0  0  0  0  0  0  0  0
  -21.2921   34.6550   16.5562 O   0  0  0  0  0  0  0  0  0  0  0  0
  -22.6815   36.2025   18.1134 N   0  0  0  0  0  0  0  0  0  0  0  0
  -17.0869   35.1642   21.9698 C   0  0  0  0  0  0  0  0  0  0  0  0
  -18.1758   35.2230   20.9399 C   0  0  0  0  0  0  0  0  0  0  0  0
  -18.4382   34.0388   20.0575 N   0  0  0  0  0  0  0  0  0  0  0  0
  -19.5271   34.0975   19.0274 C   0  0  0  0  0  0  0  0  0  0  0  0
  -20.3535   35.3405   18.8798 C   0  0  0  0  0  0  0  0  0  0  0  0
  -20.0911   36.5248   19.7622 C   0  0  0  0  0  0  0  0  0  0  0  0
  -19.0023   36.4661   20.7922 N   0  0  0  0  0  0  0  0  0  0  0  0
  -25.1765   38.7648   14.3438 C   0  0  0  0  0  0  0  0  0  0  0  0
  -26.5418   39.3344   14.0956 N   0  0  0  0  0  0  0  0  0  0  0  0
  -27.1436   39.2688   12.7232 C   0  0  0  0  0  0  0  0  0  0  0  0
  -28.5089   39.8385   12.4751 C   0  0  0  0  0  0  0  0  0  0  0  0
  -29.2722   40.4738   13.5992 N   0  0  0  0  0  0  0  0  0  0  0  0
  -30.6375   41.0435   13.3511 C   0  0  0  0  0  0  0  0  0  0  0  0
  -31.4007   41.6787   14.4753 O   0  0  0  0  0  0  0  0  0  0  0  0
  -28.6703   40.5393   14.9717 C   0  0  0  0  0  0  0  0  0  0  0  0
  -29.4336   41.1746   16.0958 C   0  0  0  0  0  0  0  0  0  0  0  0
  -27.3050   39.9697   15.2199 C   0  0  0  0  0  0  0  0  0  0  0  0
  -31.2394   40.9779   11.9787 C   0  0  0  0  0  0  0  0  0  0  0  0
  -31.2178   42.0724   10.9533 C   0  0  0  0  0  0  0  0  0  0  0  0
  -31.9336   41.5772    9.7317 C   0  0  0  0  0  0  0  0  0  0  0  0
  -32.3976   40.1767   10.0020 C   0  0  0  0  0  0  0  0  0  0  0  0
  -31.9686   39.8063   11.3908 C   0  0  0  0  0  0  0  0  0  0  0  0
 14 15  1  0  0  0
 15 16  2  0  0  0
 16 17  1  0  0  0
 17 18  2  0  0  0
 18 11  1  0  0  0
 11 12  2  0  0  0
 11 13  1  0  0  0
 13  1  1  0  0  0
  1  2  2  0  0  0
  2  3  1  0  0  0
  3  4  1  0  0  0
  4  5  2  0  0  0
  5  6  1  0  0  0
  6  7  2  0  0  0
  7  8  1  0  0  0
  8 21  1  0  0  0
 21 22  1  0  0  0
 22 23  1  0  0  0
 23 24  1  0  0  0
 24 25  1  0  0  0
 25 26  1  0  0  0
 26 27  2  0  0  0
 26 31  1  0  0  0
 31 32  1  0  0  0
 32 33  1  0  0  0
 33 34  1  0  0  0
 34 35  1  0  0  0
 25 28  1  0  0  0
 28 29  1  0  0  0
 28 30  1  0  0  0
  8  9  2  0  0  0
  9 10  1  0  0  0
 18 19  1  0  0  0
 19 20  2  0  0  0
 20 15  1  0  0  0
  9  1  1  0  0  0
  7  3  1  0  0  0
 30 22  1  0  0  0
 35 31  1  0  0  0
M  END
> <minimizedAffinity>
-5.23231

$$$$



 35 39  0  0  0  0  0  0  0  0999 V2000
  -22.7965   39.6176   18.3751 C   0  0  0  0  0  0  0  0  0  0  0  0
  -22.2421   40.7444   17.5547 C   0  0  0  0  0  0  0  0  0  0  0  0
  -23.1657   41.7717   16.9704 N   0  0  0  0  0  0  0  0  0  0  0  0
  -22.9117   42.9853   16.1261 C   0  0  0  0  0  0  0  0  0  0  0  0
  -24.2327   43.6358   15.8404 C   0  0  0  0  0  0  0  0  0  0  0  0
  -25.3031   42.8244   16.5080 N   0  0  0  0  0  0  0  0  0  0  0  0
  -24.6437   41.6723   17.2064 C   0  0  0  0  0  0  0  0  0  0  0  0
  -25.1980   40.5455   18.0267 C   0  0  0  0  0  0  0  0  0  0  0  0
  -24.2744   39.5181   18.6111 C   0  0  0  0  0  0  0  0  0  0  0  0
  -24.8288   38.3913   19.4315 C   0  0  0  0  0  0  0  0  0  0  0  0
  -21.5447   37.3489   18.1838 C   0  0  0  0  0  0  0  0  0  0  0  0
  -22.1403   37.1350   16.8239 O   0  0  0  0  0  0  0  0  0  0  0  0
  -21.8728   38.5902   18.9595 N   0  0  0  0  0  0  0  0  0  0  0  0
  -17.8502   33.2395   20.5213 C   0  0  0  0  0  0  0  0  0  0  0  0
  -18.7738   34.2669   19.9370 C   0  0  0  0  0  0  0  0  0  0  0  0
  -19.5260   33.9674   18.6742 N   0  0  0  0  0  0  0  0  0  0  0  0
  -20.4497   34.9947   18.0898 C   0  0  0  0  0  0  0  0  0  0  0  0
  -20.6211   36.3215   18.7682 C   0  0  0  0  0  0  0  0  0  0  0  0
  -19.8689   36.6210   20.0309 C   0  0  0  0  0  0  0  0  0  0  0  0
  -18.9453   35.5937   20.6153 N   0  0  0  0  0  0  0  0  0  0  0  0
  -26.6760   40.4460   18.2627 C   0  0  0  0  0  0  0  0  0  0  0  0
  -27.5590   39.8088   17.2311 N   0  0  0  0  0  0  0  0  0  0  0  0
  -27.2435   38.4346   16.7193 C   0  0  0  0  0  0  0  0  0  0  0  0
  -28.1266   37.7975   15.6876 C   0  0  0  0  0  0  0  0  0  0  0  0
  -29.3251   38.5345   15.1679 N   0  0  0  0  0  0  0  0  0  0  0  0
  -30.2082   37.8974   14.1362 C   0  0  0  0  0  0  0  0  0  0  0  0
  -31.4067   38.6345   13.6165 O   0  0  0  0  0  0  0  0  0  0  0  0
  -29.6406   39.9088   15.6797 C   0  0  0  0  0  0  0  0  0  0  0  0
  -30.8392   40.6459   15.1599 C   0  0  0  0  0  0  0  0  0  0  0  0
  -28.7576   40.5460   16.7114 C   0  0  0  0  0  0  0  0  0  0  0  0
  -29.8927   36.5232   13.6244 C   0  0  0  0  0  0  0  0  0  0  0  0
  -30.4894   35.2393   14.1199 C   0  0  0  0  0  0  0  0  0  0  0  0
  -29.8906   34.1142   13.3290 C   0  0  0  0  0  0  0  0  0  0  0  0
  -28.9238   34.7027   12.3447 C   0  0  0  0  0  0  0  0  0  0  0  0
  -28.9251   36.1916   12.5273 C   0  0  0  0  0  0  0  0  0  0  0  0
 14 15  1  0  0  0
 15 16  2  0  0  0
 16 17  1  0  0  0
 17 18  2  0  0  0
 18 11  1  0  0  0
 11 12  2  0  0  0
 11 13  1  0  0  0
 13  1  1  0  0  0
  1  2  2  0  0  0
  2  3  1  0  0  0
  3  4  1  0  0  0
  4  5  2  0  0  0
  5  6  1  0  0  0
  6  7  2  0  0  0
  7  8  1  0  0  0
  8 21  1  0  0  0
 21 22  1  0  0  0
 22 23  1  0  0  0
 23 24  1  0  0  0
 24 25  1  0  0  0
 25 26  1  0  0  0
 26 27  2  0  0  0
 26 31  1  0  0  0
 31 32  1  0  0  0
 32 33  1  0  0  0
 33 34  1  0  0  0
 34 35  1  0  0  0
 25 28  1  0  0  0
 28 29  1  0  0  0
 28 30  1  0  0  0
  8  9  2  0  0  0
  9 10  1  0  0  0
 18 19  1  0  0  0
 19 20  2  0  0  0
 20 15  1  0  0  0
  9  1  1  0  0  0
  7  3  1  0  0  0
 30 22  1  0  0  0
 35 31  1  0  0  0
M  END
> <minimizedAffinity>
-5.20839

$$$$



 35 39  0  0  0  0  0  0  0  0999 V2000
  -25.4023   34.0858   16.5430 C   0  0  0  0  0  0  0  0  0  0  0  0
  -25.5059   32.5898   16.5086 C   0  0  0  0  0  0  0  0  0  0  0  0
  -26.4789   31.9265   15.5795 N   0  0  0  0  0  0  0  0  0  0  0  0
  -26.8014   30.4836   15.3269 C   0  0  0  0  0  0  0  0  0  0  0  0
  -27.8701   30.4246   14.2761 C   0  0  0  0  0  0  0  0  0  0  0  0
  -28.2081   31.8311   13.8791 N   0  0  0  0  0  0  0  0  0  0  0  0
  -27.3483   32.7594   14.6847 C   0  0  0  0  0  0  0  0  0  0  0  0
  -27.2446   34.2554   14.7190 C   0  0  0  0  0  0  0  0  0  0  0  0
  -26.2716   34.9186   15.6482 C   0  0  0  0  0  0  0  0  0  0  0  0
  -26.1680   36.4147   15.6825 C   0  0  0  0  0  0  0  0  0  0  0  0
  -22.9551   34.6406   17.2167 C   0  0  0  0  0  0  0  0  0  0  0  0
  -22.4540   33.8688   16.0321 O   0  0  0  0  0  0  0  0  0  0  0  0
  -24.4292   34.7491   17.4722 N   0  0  0  0  0  0  0  0  0  0  0  0
  -19.0629   37.2934   20.9334 C   0  0  0  0  0  0  0  0  0  0  0  0
  -20.0359   36.6302   20.0042 C   0  0  0  0  0  0  0  0  0  0  0  0
  -21.4072   37.2085   19.8167 N   0  0  0  0  0  0  0  0  0  0  0  0
  -22.3803   36.5453   18.8875 C   0  0  0  0  0  0  0  0  0  0  0  0
  -21.9821   35.3038   18.1459 C   0  0  0  0  0  0  0  0  0  0  0  0
  -20.6108   34.7254   18.3334 C   0  0  0  0  0  0  0  0  0  0  0  0
  -19.6378   35.3886   19.2625 N   0  0  0  0  0  0  0  0  0  0  0  0
  -28.1140   35.0882   13.8242 C   0  0  0  0  0  0  0  0  0  0  0  0
  -29.1409   36.0058   14.4187 N   0  0  0  0  0  0  0  0  0  0  0  0
  -29.3681   37.3635   13.8228 C   0  0  0  0  0  0  0  0  0  0  0  0
  -30.3951   38.2811   14.4173 C   0  0  0  0  0  0  0  0  0  0  0  0
  -31.1946   37.8411   15.6077 N   0  0  0  0  0  0  0  0  0  0  0  0
  -32.2216   38.7588   16.2022 C   0  0  0  0  0  0  0  0  0  0  0  0
  -33.0211   38.3187   17.3926 O   0  0  0  0  0  0  0  0  0  0  0  0
  -30.9673   36.4834   16.2036 C   0  0  0  0  0  0  0  0  0  0  0  0
  -31.7670   36.0434   17.3940 C   0  0  0  0  0  0  0  0  0  0  0  0
  -29.9405   35.5657   15.6091 C   0  0  0  0  0  0  0  0  0  0  0  0
  -32.4488   40.1164   15.6063 C   0  0  0  0  0  0  0  0  0  0  0  0
  -31.7527   41.3831   16.0074 C   0  0  0  0  0  0  0  0  0  0  0  0
  -32.2857   42.4953   15.1537 C   0  0  0  0  0  0  0  0  0  0  0  0
  -33.3113   41.9160   14.2249 C   0  0  0  0  0  0  0  0  0  0  0  0
  -33.4121   40.4458   14.5047 C   0  0  0  0  0  0  0  0  0  0  0  0
 14 15  1  0  0  0
 15 16  2  0  0  0
 16 17  1  0  0  0
 17 18  2  0  0  0
 18 11  1  0  0  0
 11 12  2  0  0  0
 11 13  1  0  0  0
 13  1  1  0  0  0
  1  2  2  0  0  0
  2  3  1  0  0  0
  3  4  1  0  0  0
  4  5  2  0  0  0
  5  6  1  0  0  0
  6  7  2  0  0  0
  7  8  1  0  0  0
  8 21  1  0  0  0
 21 22  1  0  0  0
 22 23  1  0  0  0
 23 24  1  0  0  0
 24 25  1  0  0  0
 25 26  1  0  0  0
 26 27  2  0  0  0
 26 31  1  0  0  0
 31 32  1  0  0  0
 32 33  1  0  0  0
 33 34  1  0  0  0
 34 35  1  0  0  0
 25 28  1  0  0  0
 28 29  1  0  0  0
 28 30  1  0  0  0
  8  9  2  0  0  0
  9 10  1  0  0  0
 18 19  1  0  0  0
 19 20  2  0  0  0
 20 15  1  0  0  0
  9  1  1  0  0  0
  7  3  1  0  0  0
 30 22  1  0  0  0
 35 31  1  0  0  0
M  END
> <minimizedAffinity>
-5.11906

$$$$



 35 39  0  0  0  0  0  0  0  0999 V2000
  -31.5742   36.4745   16.2487 C   0  0  0  0  0  0  0  0  0  0  0  0
  -30.8134   35.6370   15.2638 C   0  0  0  0  0  0  0  0  0  0  0  0
  -30.0330   36.2952   14.1648 N   0  0  0  0  0  0  0  0  0  0  0  0
  -29.1928   35.7346   13.0559 C   0  0  0  0  0  0  0  0  0  0  0  0
  -28.6539   36.8836   12.2564 C   0  0  0  0  0  0  0  0  0  0  0  0
  -29.1610   38.1544   12.8712 N   0  0  0  0  0  0  0  0  0  0  0  0
  -30.0133   37.7907   14.0507 C   0  0  0  0  0  0  0  0  0  0  0  0
  -30.7741   38.6281   15.0356 C   0  0  0  0  0  0  0  0  0  0  0  0
  -31.5545   37.9700   16.1345 C   0  0  0  0  0  0  0  0  0  0  0  0
  -32.3153   38.8075   17.1194 C   0  0  0  0  0  0  0  0  0  0  0  0
  -31.6429   35.2707   18.5500 C   0  0  0  0  0  0  0  0  0  0  0  0
  -30.1507   35.3830   18.6534 O   0  0  0  0  0  0  0  0  0  0  0  0
  -32.3547   35.8164   17.3477 N   0  0  0  0  0  0  0  0  0  0  0  0
  -34.7646   32.6381   22.9461 C   0  0  0  0  0  0  0  0  0  0  0  0
  -33.9842   33.2962   21.8471 C   0  0  0  0  0  0  0  0  0  0  0  0
  -34.4753   34.5780   21.2423 N   0  0  0  0  0  0  0  0  0  0  0  0
  -33.6949   35.2362   20.1432 C   0  0  0  0  0  0  0  0  0  0  0  0
  -32.4234   34.6125   19.6490 C   0  0  0  0  0  0  0  0  0  0  0  0
  -31.9322   33.3307   20.2538 C   0  0  0  0  0  0  0  0  0  0  0  0
  -32.7126   32.6726   21.3528 N   0  0  0  0  0  0  0  0  0  0  0  0
  -30.7544   40.1236   14.9215 C   0  0  0  0  0  0  0  0  0  0  0  0
  -29.6791   40.9140   15.6062 N   0  0  0  0  0  0  0  0  0  0  0  0
  -28.2358   40.6102   15.3331 C   0  0  0  0  0  0  0  0  0  0  0  0
  -27.1604   41.4006   16.0179 C   0  0  0  0  0  0  0  0  0  0  0  0
  -27.5283   42.4947   16.9757 N   0  0  0  0  0  0  0  0  0  0  0  0
  -26.4529   43.2851   17.6605 C   0  0  0  0  0  0  0  0  0  0  0  0
  -26.8209   44.3792   18.6183 O   0  0  0  0  0  0  0  0  0  0  0  0
  -28.9717   42.7985   17.2488 C   0  0  0  0  0  0  0  0  0  0  0  0
  -29.3396   43.8927   18.2067 C   0  0  0  0  0  0  0  0  0  0  0  0
  -30.0471   42.0081   16.5641 C   0  0  0  0  0  0  0  0  0  0  0  0
  -25.0096   42.9814   17.3873 C   0  0  0  0  0  0  0  0  0  0  0  0
  -24.1826   43.5566   16.2760 C   0  0  0  0  0  0  0  0  0  0  0  0
  -22.8018   42.9798   16.3794 C   0  0  0  0  0  0  0  0  0  0  0  0
  -22.7754   42.0480   17.5545 C   0  0  0  0  0  0  0  0  0  0  0  0
  -24.1400   42.0490   18.1775 C   0  0  0  0  0  0  0  0  0  0  0  0
 14 15  1  0  0  0
 15 16  2  0  0  0
 16 17  1  0  0  0
 17 18  2  0  0  0
 18 11  1  0  0  0
 11 12  2  0  0  0
 11 13  1  0  0  0
 13  1  1  0  0  0
  1  2  2  0  0  0
  2  3  1  0  0  0
  3  4  1  0  0  0
  4  5  2  0  0  0
  5  6  1  0  0  0
  6  7  2  0  0  0
  7  8  1  0  0  0
  8 21  1  0  0  0
 21 22  1  0  0  0
 22 23  1  0  0  0
 23 24  1  0  0  0
 24 25  1  0  0  0
 25 26  1  0  0  0
 26 27  2  0  0  0
 26 31  1  0  0  0
 31 32  1  0  0  0
 32 33  1  0  0  0
 33 34  1  0  0  0
 34 35  1  0  0  0
 25 28  1  0  0  0
 28 29  1  0  0  0
 28 30  1  0  0  0
  8  9  2  0  0  0
  9 10  1  0  0  0
 18 19  1  0  0  0
 19 20  2  0  0  0
 20 15  1  0  0  0
  9  1  1  0  0  0
  7  3  1  0  0  0
 30 22  1  0  0  0
 35 31  1  0  0  0
M  END
> <minimizedAffinity>
-4.95733

$$$$



 31 34  0  0  0  0  0  0  0  0999 V2000
  -17.2642   45.5153  -16.5505 C   0  0  0  0  0  0  0  0  0  0  0  0
  -16.8825   44.2686  -17.2921 C   0  0  0  0  0  0  0  0  0  0  0  0
  -17.7264   43.5515  -18.3039 C   0  0  0  0  0  0  0  0  0  0  0  0
  -16.9554   42.3598  -18.7894 N   0  0  0  0  0  0  0  0  0  0  0  0
  -15.6352   42.3405  -18.0776 C   0  0  0  0  0  0  0  0  0  0  0  0
  -15.5902   43.5202  -17.1523 N   0  0  0  0  0  0  0  0  0  0  0  0
  -14.4524   43.8871  -16.2462 C   0  0  0  0  0  0  0  0  0  0  0  0
  -14.3430   43.2599  -14.8880 C   0  0  0  0  0  0  0  0  0  0  0  0
  -15.1665   42.2591  -14.1330 Cl  0  0  0  0  0  0  0  0  0  0  0  0
  -13.2053   43.6268  -13.9820 C   0  0  0  0  0  0  0  0  0  0  0  0
  -12.1769   44.6209  -14.4341 C   0  0  0  0  0  0  0  0  0  0  0  0
  -12.2863   45.2480  -15.7923 C   0  0  0  0  0  0  0  0  0  0  0  0
  -13.4241   44.8811  -16.6983 C   0  0  0  0  0  0  0  0  0  0  0  0
  -13.5335   45.5083  -18.0566 Cl  0  0  0  0  0  0  0  0  0  0  0  0
  -11.2580   46.2421  -16.2444 N   0  0  0  0  0  0  0  0  0  0  0  0
  -10.1227   46.2224  -17.2247 C   0  0  0  0  0  0  0  0  0  0  0  0
   -9.8038   47.6479  -16.8838 C   0  0  0  0  0  0  0  0  0  0  0  0
  -10.9390   47.6676  -15.9036 C   0  0  0  0  0  0  0  0  0  0  0  0
   -8.7754   48.6419  -17.3359 C   0  0  0  0  0  0  0  0  0  0  0  0
   -8.8753   49.2562  -18.7007 O   0  0  0  0  0  0  0  0  0  0  0  0
   -7.6473   49.0216  -16.4233 O   0  0  0  0  0  0  0  0  0  0  0  0
  -14.5505   41.3205  -18.2593 C   0  0  0  0  0  0  0  0  0  0  0  0
  -13.1969   41.5697  -18.8560 C   0  0  0  0  0  0  0  0  0  0  0  0
  -12.4387   40.2755  -18.8417 C   0  0  0  0  0  0  0  0  0  0  0  0
  -13.3236   39.2265  -18.2363 C   0  0  0  0  0  0  0  0  0  0  0  0
  -12.9663   37.7848  -18.0274 Cl  0  0  0  0  0  0  0  0  0  0  0  0
  -14.6287   39.8724  -17.8764 O   0  0  0  0  0  0  0  0  0  0  0  0
  -19.0999   43.9551  -18.7516 C   0  0  0  0  0  0  0  0  0  0  0  0
  -20.4735   44.3588  -19.1993 F   0  0  0  0  0  0  0  0  0  0  0  0
  -19.6984   42.9093  -17.8583 F   0  0  0  0  0  0  0  0  0  0  0  0
  -18.5014   45.0010  -19.6449 F   0  0  0  0  0  0  0  0  0  0  0  0
  1  2  1  0  0  0
  2  3  2  0  0  0
  3 28  1  0  0  0
 28 29  1  0  0  0
 28 30  1  0  0  0
 28 31  1  0  0  0
  3  4  1  0  0  0
  4  5  2  0  0  0
  5 22  1  0  0  0
 22 23  2  0  0  0
 23 24  1  0  0  0
 24 25  2  0  0  0
 25 26  1  0  0  0
 25 27  1  0  0  0
  5  6  1  0  0  0
  6  7  1  0  0  0
  7  8  2  0  0  0
  8  9  1  0  0  0
  8 10  1  0  0  0
 10 11  2  0  0  0
 11 12  1  0  0  0
 12 15  1  0  0  0
 15 16  1  0  0  0
 16 17  1  0  0  0
 17 19  1  0  0  0
 19 20  1  0  0  0
 19 21  1  0  0  0
 17 18  1  0  0  0
 12 13  2  0  0  0
 13 14  1  0  0  0
  6  2  1  0  0  0
 13  7  1  0  0  0
 27 22  1  0  0  0
 18 15  1  0  0  0
M  END
> <minimizedAffinity>
-5.82819

$$$$



 31 34  0  0  0  0  0  0  0  0999 V2000
  -14.6896   44.9863  -19.0393 C   0  0  0  0  0  0  0  0  0  0  0  0
  -14.5289   44.7681  -17.5640 C   0  0  0  0  0  0  0  0  0  0  0  0
  -15.6410   44.6274  -16.5673 C   0  0  0  0  0  0  0  0  0  0  0  0
  -15.0274   44.4247  -15.2136 N   0  0  0  0  0  0  0  0  0  0  0  0
  -13.5360   44.4402  -15.3737 C   0  0  0  0  0  0  0  0  0  0  0  0
  -13.2280   44.6525  -16.8264 N   0  0  0  0  0  0  0  0  0  0  0  0
  -11.8592   44.7346  -17.4345 C   0  0  0  0  0  0  0  0  0  0  0  0
  -11.1063   46.0318  -17.4147 C   0  0  0  0  0  0  0  0  0  0  0  0
  -11.4074   47.4035  -16.8875 Cl  0  0  0  0  0  0  0  0  0  0  0  0
   -9.7376   46.1139  -18.0228 C   0  0  0  0  0  0  0  0  0  0  0  0
   -9.1218   44.8989  -18.6508 C   0  0  0  0  0  0  0  0  0  0  0  0
   -9.8747   43.6017  -18.6706 C   0  0  0  0  0  0  0  0  0  0  0  0
  -11.2434   43.5196  -18.0625 C   0  0  0  0  0  0  0  0  0  0  0  0
  -11.9963   42.2223  -18.0823 Cl  0  0  0  0  0  0  0  0  0  0  0  0
   -9.2588   42.3866  -19.2986 N   0  0  0  0  0  0  0  0  0  0  0  0
   -8.8886   41.9872  -20.6963 C   0  0  0  0  0  0  0  0  0  0  0  0
   -8.3879   40.6683  -20.1867 C   0  0  0  0  0  0  0  0  0  0  0  0
   -8.7582   41.0676  -18.7890 C   0  0  0  0  0  0  0  0  0  0  0  0
   -7.7721   39.4532  -20.8147 C   0  0  0  0  0  0  0  0  0  0  0  0
   -8.3585   38.8790  -22.0702 O   0  0  0  0  0  0  0  0  0  0  0  0
   -6.5699   38.8123  -20.1871 O   0  0  0  0  0  0  0  0  0  0  0  0
  -12.5295   44.2729  -14.2743 C   0  0  0  0  0  0  0  0  0  0  0  0
  -12.4549   43.1221  -13.3148 C   0  0  0  0  0  0  0  0  0  0  0  0
  -11.3002   43.3649  -12.3888 C   0  0  0  0  0  0  0  0  0  0  0  0
  -10.6610   44.6656  -12.7758 C   0  0  0  0  0  0  0  0  0  0  0  0
   -9.4711   45.2948  -12.1139 Cl  0  0  0  0  0  0  0  0  0  0  0  0
  -11.4208   45.2267  -13.9411 O   0  0  0  0  0  0  0  0  0  0  0  0
  -17.1090   44.6800  -16.8710 C   0  0  0  0  0  0  0  0  0  0  0  0
  -18.5770   44.7327  -17.1746 F   0  0  0  0  0  0  0  0  0  0  0  0
  -17.1463   46.1168  -16.4415 F   0  0  0  0  0  0  0  0  0  0  0  0
  -17.0717   43.2433  -17.3005 F   0  0  0  0  0  0  0  0  0  0  0  0
  1  2  1  0  0  0
  2  3  2  0  0  0
  3 28  1  0  0  0
 28 29  1  0  0  0
 28 30  1  0  0  0
 28 31  1  0  0  0
  3  4  1  0  0  0
  4  5  2  0  0  0
  5 22  1  0  0  0
 22 23  2  0  0  0
 23 24  1  0  0  0
 24 25  2  0  0  0
 25 26  1  0  0  0
 25 27  1  0  0  0
  5  6  1  0  0  0
  6  7  1  0  0  0
  7  8  2  0  0  0
  8  9  1  0  0  0
  8 10  1  0  0  0
 10 11  2  0  0  0
 11 12  1  0  0  0
 12 15  1  0  0  0
 15 16  1  0  0  0
 16 17  1  0  0  0
 17 19  1  0  0  0
 19 20  1  0  0  0
 19 21  1  0  0  0
 17 18  1  0  0  0
 12 13  2  0  0  0
 13 14  1  0  0  0
  6  2  1  0  0  0
 13  7  1  0  0  0
 27 22  1  0  0  0
 18 15  1  0  0  0
M  END
> <minimizedAffinity>
-5.76484

$$$$



 31 34  0  0  0  0  0  0  0  0999 V2000
  -10.7328   47.2897  -14.6354 C   0  0  0  0  0  0  0  0  0  0  0  0
   -9.9708   46.1028  -15.1460 C   0  0  0  0  0  0  0  0  0  0  0  0
   -8.4899   46.0382  -15.3757 C   0  0  0  0  0  0  0  0  0  0  0  0
   -8.1597   44.6676  -15.8882 N   0  0  0  0  0  0  0  0  0  0  0  0
   -9.4366   43.8852  -15.9751 C   0  0  0  0  0  0  0  0  0  0  0  0
  -10.5559   44.7722  -15.5164 N   0  0  0  0  0  0  0  0  0  0  0  0
  -12.0057   44.3948  -15.4414 C   0  0  0  0  0  0  0  0  0  0  0  0
  -12.5067   43.5663  -14.2958 C   0  0  0  0  0  0  0  0  0  0  0  0
  -11.8587   42.9600  -13.0865 Cl  0  0  0  0  0  0  0  0  0  0  0  0
  -13.9565   43.1889  -14.2208 C   0  0  0  0  0  0  0  0  0  0  0  0
  -14.9053   43.6402  -15.2913 C   0  0  0  0  0  0  0  0  0  0  0  0
  -14.4043   44.4687  -16.4369 C   0  0  0  0  0  0  0  0  0  0  0  0
  -12.9545   44.8461  -16.5120 C   0  0  0  0  0  0  0  0  0  0  0  0
  -12.4535   45.6747  -17.6576 Cl  0  0  0  0  0  0  0  0  0  0  0  0
  -15.3531   44.9199  -17.5075 N   0  0  0  0  0  0  0  0  0  0  0  0
  -15.3623   44.8698  -19.0067 C   0  0  0  0  0  0  0  0  0  0  0  0
  -16.6949   45.5581  -19.0216 C   0  0  0  0  0  0  0  0  0  0  0  0
  -16.6859   45.6083  -17.5224 C   0  0  0  0  0  0  0  0  0  0  0  0
  -17.6438   46.0093  -20.0922 C   0  0  0  0  0  0  0  0  0  0  0  0
  -18.7077   45.0779  -20.5926 O   0  0  0  0  0  0  0  0  0  0  0  0
  -17.5286   47.3919  -20.6623 O   0  0  0  0  0  0  0  0  0  0  0  0
   -9.5705   42.4652  -16.4393 C   0  0  0  0  0  0  0  0  0  0  0  0
   -8.4455   41.4937  -16.6411 C   0  0  0  0  0  0  0  0  0  0  0  0
   -9.0327   40.1953  -17.1097 C   0  0  0  0  0  0  0  0  0  0  0  0
  -10.5206   40.3644  -17.1975 C   0  0  0  0  0  0  0  0  0  0  0  0
  -11.5035   39.3149  -17.6245 Cl  0  0  0  0  0  0  0  0  0  0  0  0
  -10.8529   41.7671  -16.7831 O   0  0  0  0  0  0  0  0  0  0  0  0
   -7.5111   47.1490  -15.1352 C   0  0  0  0  0  0  0  0  0  0  0  0
   -6.5322   48.2599  -14.8948 F   0  0  0  0  0  0  0  0  0  0  0  0
   -7.8524   47.7391  -16.4714 F   0  0  0  0  0  0  0  0  0  0  0  0
   -7.1698   46.5590  -13.7990 F   0  0  0  0  0  0  0  0  0  0  0  0
  1  2  1  0  0  0
  2  3  2  0  0  0
  3 28  1  0  0  0
 28 29  1  0  0  0
 28 30  1  0  0  0
 28 31  1  0  0  0
  3  4  1  0  0  0
  4  5  2  0  0  0
  5 22  1  0  0  0
 22 23  2  0  0  0
 23 24  1  0  0  0
 24 25  2  0  0  0
 25 26  1  0  0  0
 25 27  1  0  0  0
  5  6  1  0  0  0
  6  7  1  0  0  0
  7  8  2  0  0  0
  8  9  1  0  0  0
  8 10  1  0  0  0
 10 11  2  0  0  0
 11 12  1  0  0  0
 12 15  1  0  0  0
 15 16  1  0  0  0
 16 17  1  0  0  0
 17 19  1  0  0  0
 19 20  1  0  0  0
 19 21  1  0  0  0
 17 18  1  0  0  0
 12 13  2  0  0  0
 13 14  1  0  0  0
  6  2  1  0  0  0
 13  7  1  0  0  0
 27 22  1  0  0  0
 18 15  1  0  0  0
M  END
> <minimizedAffinity>
-5.74336

$$$$



 31 34  0  0  0  0  0  0  0  0999 V2000
  -15.0335   42.2566  -14.4669 C   0  0  0  0  0  0  0  0  0  0  0  0
  -14.2622   43.2006  -15.3409 C   0  0  0  0  0  0  0  0  0  0  0  0
  -12.8904   43.7393  -15.0615 C   0  0  0  0  0  0  0  0  0  0  0  0
  -12.5075   44.6433  -16.1956 N   0  0  0  0  0  0  0  0  0  0  0  0
  -13.6426   44.6633  -17.1759 C   0  0  0  0  0  0  0  0  0  0  0  0
  -14.7271   43.7717  -16.6477 N   0  0  0  0  0  0  0  0  0  0  0  0
  -16.0451   43.4990  -17.3100 C   0  0  0  0  0  0  0  0  0  0  0  0
  -17.1866   44.4553  -17.1307 C   0  0  0  0  0  0  0  0  0  0  0  0
  -17.3592   45.7433  -16.3816 Cl  0  0  0  0  0  0  0  0  0  0  0  0
  -18.5045   44.1826  -17.7931 C   0  0  0  0  0  0  0  0  0  0  0  0
  -18.6808   42.9535  -18.6347 C   0  0  0  0  0  0  0  0  0  0  0  0
  -17.5393   41.9972  -18.8140 C   0  0  0  0  0  0  0  0  0  0  0  0
  -16.2214   42.2699  -18.1517 C   0  0  0  0  0  0  0  0  0  0  0  0
  -15.0797   41.3136  -18.3310 Cl  0  0  0  0  0  0  0  0  0  0  0  0
  -17.7156   40.7681  -19.6556 N   0  0  0  0  0  0  0  0  0  0  0  0
  -18.7561   39.6924  -19.7572 C   0  0  0  0  0  0  0  0  0  0  0  0
  -17.9649   39.0300  -20.8459 C   0  0  0  0  0  0  0  0  0  0  0  0
  -16.9244   40.1056  -20.7443 C   0  0  0  0  0  0  0  0  0  0  0  0
  -18.1412   37.8010  -21.6875 C   0  0  0  0  0  0  0  0  0  0  0  0
  -17.7793   37.8303  -23.1429 O   0  0  0  0  0  0  0  0  0  0  0  0
  -18.6795   36.5426  -21.0738 O   0  0  0  0  0  0  0  0  0  0  0  0
  -13.6858   45.4388  -18.4591 C   0  0  0  0  0  0  0  0  0  0  0  0
  -12.5015   45.9915  -19.1956 C   0  0  0  0  0  0  0  0  0  0  0  0
  -13.0045   46.6920  -20.4228 C   0  0  0  0  0  0  0  0  0  0  0  0
  -14.4996   46.5724  -20.4450 C   0  0  0  0  0  0  0  0  0  0  0  0
  -15.4133   47.1293  -21.4961 Cl  0  0  0  0  0  0  0  0  0  0  0  0
  -14.9206   45.7978  -19.2314 O   0  0  0  0  0  0  0  0  0  0  0  0
  -12.0492   43.4286  -13.8590 C   0  0  0  0  0  0  0  0  0  0  0  0
  -11.2080   43.1178  -12.6566 F   0  0  0  0  0  0  0  0  0  0  0  0
  -12.8911   44.3535  -13.0310 F   0  0  0  0  0  0  0  0  0  0  0  0
  -11.2073   42.5036  -14.6870 F   0  0  0  0  0  0  0  0  0  0  0  0
  1  2  1  0  0  0
  2  3  2  0  0  0
  3 28  1  0  0  0
 28 29  1  0  0  0
 28 30  1  0  0  0
 28 31  1  0  0  0
  3  4  1  0  0  0
  4  5  2  0  0  0
  5 22  1  0  0  0
 22 23  2  0  0  0
 23 24  1  0  0  0
 24 25  2  0  0  0
 25 26  1  0  0  0
 25 27  1  0  0  0
  5  6  1  0  0  0
  6  7  1  0  0  0
  7  8  2  0  0  0
  8  9  1  0  0  0
  8 10  1  0  0  0
 10 11  2  0  0  0
 11 12  1  0  0  0
 12 15  1  0  0  0
 15 16  1  0  0  0
 16 17  1  0  0  0
 17 19  1  0  0  0
 19 20  1  0  0  0
 19 21  1  0  0  0
 17 18  1  0  0  0
 12 13  2  0  0  0
 13 14  1  0  0  0
  6  2  1  0  0  0
 13  7  1  0  0  0
 27 22  1  0  0  0
 18 15  1  0  0  0
M  END
> <minimizedAffinity>
-5.19272

$$$$



 31 34  0  0  0  0  0  0  0  0999 V2000
  -10.8984   40.9816  -17.3636 C   0  0  0  0  0  0  0  0  0  0  0  0
  -12.3706   41.2224  -17.5199 C   0  0  0  0  0  0  0  0  0  0  0  0
  -13.3733   40.2404  -18.0494 C   0  0  0  0  0  0  0  0  0  0  0  0
  -14.7211   40.8985  -18.0309 N   0  0  0  0  0  0  0  0  0  0  0  0
  -14.5514   42.2873  -17.4900 C   0  0  0  0  0  0  0  0  0  0  0  0
  -13.0987   42.4874  -17.1742 N   0  0  0  0  0  0  0  0  0  0  0  0
  -12.4824   43.7339  -16.6114 C   0  0  0  0  0  0  0  0  0  0  0  0
  -12.5057   43.9800  -15.1320 C   0  0  0  0  0  0  0  0  0  0  0  0
  -13.0435   43.2181  -13.9572 Cl  0  0  0  0  0  0  0  0  0  0  0  0
  -11.8894   45.2264  -14.5693 C   0  0  0  0  0  0  0  0  0  0  0  0
  -11.2498   46.2266  -15.4861 C   0  0  0  0  0  0  0  0  0  0  0  0
  -11.2264   45.9805  -16.9655 C   0  0  0  0  0  0  0  0  0  0  0  0
  -11.8428   44.7341  -17.5282 C   0  0  0  0  0  0  0  0  0  0  0  0
  -11.8194   44.4878  -19.0077 Cl  0  0  0  0  0  0  0  0  0  0  0  0
  -10.5868   46.9807  -17.8823 N   0  0  0  0  0  0  0  0  0  0  0  0
  -11.0647   48.1867  -18.6355 C   0  0  0  0  0  0  0  0  0  0  0  0
   -9.6822   48.3951  -19.1788 C   0  0  0  0  0  0  0  0  0  0  0  0
   -9.2043   47.1892  -18.4256 C   0  0  0  0  0  0  0  0  0  0  0  0
   -9.0426   49.3953  -20.0955 C   0  0  0  0  0  0  0  0  0  0  0  0
   -8.7938   50.7963  -19.6207 O   0  0  0  0  0  0  0  0  0  0  0  0
   -8.6517   48.9946  -21.4871 O   0  0  0  0  0  0  0  0  0  0  0  0
  -15.6427   43.2983  -17.2986 C   0  0  0  0  0  0  0  0  0  0  0  0
  -15.4871   44.6582  -16.6848 C   0  0  0  0  0  0  0  0  0  0  0  0
  -16.8294   45.3274  -16.6942 C   0  0  0  0  0  0  0  0  0  0  0  0
  -17.8148   44.3812  -17.3137 C   0  0  0  0  0  0  0  0  0  0  0  0
  -19.2769   44.6429  -17.5230 Cl  0  0  0  0  0  0  0  0  0  0  0  0
  -17.0814   43.1272  -17.6872 O   0  0  0  0  0  0  0  0  0  0  0  0
  -13.0797   38.8452  -18.5155 C   0  0  0  0  0  0  0  0  0  0  0  0
  -12.7861   37.4500  -18.9816 F   0  0  0  0  0  0  0  0  0  0  0  0
  -12.6275   39.3831  -19.8407 F   0  0  0  0  0  0  0  0  0  0  0  0
  -13.5319   38.3073  -17.1903 F   0  0  0  0  0  0  0  0  0  0  0  0
  1  2  1  0  0  0
  2  3  2  0  0  0
  3 28  1  0  0  0
 28 29  1  0  0  0
 28 30  1  0  0  0
 28 31  1  0  0  0
  3  4  1  0  0  0
  4  5  2  0  0  0
  5 22  1  0  0  0
 22 23  2  0  0  0
 23 24  1  0  0  0
 24 25  2  0  0  0
 25 26  1  0  0  0
 25 27  1  0  0  0
  5  6  1  0  0  0
  6  7  1  0  0  0
  7  8  2  0  0  0
  8  9  1  0  0  0
  8 10  1  0  0  0
 10 11  2  0  0  0
 11 12  1  0  0  0
 12 15  1  0  0  0
 15 16  1  0  0  0
 16 17  1  0  0  0
 17 19  1  0  0  0
 19 20  1  0  0  0
 19 21  1  0  0  0
 17 18  1  0  0  0
 12 13  2  0  0  0
 13 14  1  0  0  0
  6  2  1  0  0  0
 13  7  1  0  0  0
 27 22  1  0  0  0
 18 15  1  0  0  0
M  END
> <minimizedAffinity>
-5.16340

$$$$



 31 34  0  0  0  0  0  0  0  0999 V2000
  -16.8136   45.5705  -16.3810 C   0  0  0  0  0  0  0  0  0  0  0  0
  -16.2087   44.5695  -17.3201 C   0  0  0  0  0  0  0  0  0  0  0  0
  -16.8362   44.0513  -18.5801 C   0  0  0  0  0  0  0  0  0  0  0  0
  -15.8854   43.0724  -19.2030 N   0  0  0  0  0  0  0  0  0  0  0  0
  -14.6703   42.9857  -18.3279 C   0  0  0  0  0  0  0  0  0  0  0  0
  -14.8700   43.9109  -17.1642 N   0  0  0  0  0  0  0  0  0  0  0  0
  -13.9012   44.1377  -16.0417 C   0  0  0  0  0  0  0  0  0  0  0  0
  -14.0429   43.3686  -14.7618 C   0  0  0  0  0  0  0  0  0  0  0  0
  -15.0048   42.3265  -14.2733 Cl  0  0  0  0  0  0  0  0  0  0  0  0
  -13.0741   43.5955  -13.6393 C   0  0  0  0  0  0  0  0  0  0  0  0
  -11.9636   44.5914  -13.7968 C   0  0  0  0  0  0  0  0  0  0  0  0
  -11.8219   45.3606  -15.0768 C   0  0  0  0  0  0  0  0  0  0  0  0
  -12.7907   45.1337  -16.1992 C   0  0  0  0  0  0  0  0  0  0  0  0
  -12.6490   45.9029  -17.4793 Cl  0  0  0  0  0  0  0  0  0  0  0  0
  -10.7114   46.3565  -15.2343 N   0  0  0  0  0  0  0  0  0  0  0  0
  -10.5395   47.8125  -14.9169 C   0  0  0  0  0  0  0  0  0  0  0  0
   -9.1409   47.7651  -15.4571 C   0  0  0  0  0  0  0  0  0  0  0  0
   -9.3127   46.3091  -15.7744 C   0  0  0  0  0  0  0  0  0  0  0  0
   -8.0304   48.7610  -15.6146 C   0  0  0  0  0  0  0  0  0  0  0  0
   -6.6592   48.4438  -15.0958 O   0  0  0  0  0  0  0  0  0  0  0  0
   -8.2911   50.0743  -16.2909 O   0  0  0  0  0  0  0  0  0  0  0  0
  -13.4666   42.1249  -18.5733 C   0  0  0  0  0  0  0  0  0  0  0  0
  -12.7684   41.9396  -19.8880 C   0  0  0  0  0  0  0  0  0  0  0  0
  -11.6202   40.9984  -19.6745 C   0  0  0  0  0  0  0  0  0  0  0  0
  -11.6087   40.6019  -18.2278 C   0  0  0  0  0  0  0  0  0  0  0  0
  -10.6282   39.6725  -17.5761 Cl  0  0  0  0  0  0  0  0  0  0  0  0
  -12.7498   41.2981  -17.5473 O   0  0  0  0  0  0  0  0  0  0  0  0
  -18.1789   44.4431  -19.1222 C   0  0  0  0  0  0  0  0  0  0  0  0
  -19.5215   44.8349  -19.6642 F   0  0  0  0  0  0  0  0  0  0  0  0
  -17.5643   45.6455  -19.7754 F   0  0  0  0  0  0  0  0  0  0  0  0
  -18.7935   43.2407  -18.4690 F   0  0  0  0  0  0  0  0  0  0  0  0
  1  2  1  0  0  0
  2  3  2  0  0  0
  3 28  1  0  0  0
 28 29  1  0  0  0
 28 30  1  0  0  0
 28 31  1  0  0  0
  3  4  1  0  0  0
  4  5  2  0  0  0
  5 22  1  0  0  0
 22 23  2  0  0  0
 23 24  1  0  0  0
 24 25  2  0  0  0
 25 26  1  0  0  0
 25 27  1  0  0  0
  5  6  1  0  0  0
  6  7  1  0  0  0
  7  8  2  0  0  0
  8  9  1  0  0  0
  8 10  1  0  0  0
 10 11  2  0  0  0
 11 12  1  0  0  0
 12 15  1  0  0  0
 15 16  1  0  0  0
 16 17  1  0  0  0
 17 19  1  0  0  0
 19 20  1  0  0  0
 19 21  1  0  0  0
 17 18  1  0  0  0
 12 13  2  0  0  0
 13 14  1  0  0  0
  6  2  1  0  0  0
 13  7  1  0  0  0
 27 22  1  0  0  0
 18 15  1  0  0  0
M  END
> <minimizedAffinity>
-5.15499

$$$$



 31 34  0  0  0  0  0  0  0  0999 V2000
  -18.3479   44.7655  -18.1088 C   0  0  0  0  0  0  0  0  0  0  0  0
  -17.9238   43.3603  -18.4178 C   0  0  0  0  0  0  0  0  0  0  0  0
  -18.8365   42.2151  -18.7426 C   0  0  0  0  0  0  0  0  0  0  0  0
  -17.9893   41.0006  -18.9818 N   0  0  0  0  0  0  0  0  0  0  0  0
  -16.5530   41.3952  -18.8049 C   0  0  0  0  0  0  0  0  0  0  0  0
  -16.5125   42.8536  -18.4563 N   0  0  0  0  0  0  0  0  0  0  0  0
  -15.2775   43.6631  -18.1925 C   0  0  0  0  0  0  0  0  0  0  0  0
  -14.6905   44.5119  -19.2810 C   0  0  0  0  0  0  0  0  0  0  0  0
  -15.0646   44.7819  -20.7083 Cl  0  0  0  0  0  0  0  0  0  0  0  0
  -13.4555   45.3214  -19.0172 C   0  0  0  0  0  0  0  0  0  0  0  0
  -12.8076   45.2820  -17.6649 C   0  0  0  0  0  0  0  0  0  0  0  0
  -13.3946   44.4331  -16.5765 C   0  0  0  0  0  0  0  0  0  0  0  0
  -14.6296   43.6237  -16.8403 C   0  0  0  0  0  0  0  0  0  0  0  0
  -15.2167   42.7747  -15.7518 Cl  0  0  0  0  0  0  0  0  0  0  0  0
  -12.7467   44.3937  -15.2242 N   0  0  0  0  0  0  0  0  0  0  0  0
  -11.8070   45.2886  -14.4718 C   0  0  0  0  0  0  0  0  0  0  0  0
  -11.8304   44.3379  -13.3118 C   0  0  0  0  0  0  0  0  0  0  0  0
  -12.7701   43.4430  -14.0641 C   0  0  0  0  0  0  0  0  0  0  0  0
  -11.1825   44.2985  -11.9595 C   0  0  0  0  0  0  0  0  0  0  0  0
   -9.6870   44.2854  -11.8445 O   0  0  0  0  0  0  0  0  0  0  0  0
  -12.0301   44.2722  -10.7223 O   0  0  0  0  0  0  0  0  0  0  0  0
  -15.3657   40.4903  -18.9509 C   0  0  0  0  0  0  0  0  0  0  0  0
  -14.6203   40.2120  -20.2226 C   0  0  0  0  0  0  0  0  0  0  0  0
  -13.5092   39.2545  -19.9085 C   0  0  0  0  0  0  0  0  0  0  0  0
  -13.5679   38.9409  -18.4428 C   0  0  0  0  0  0  0  0  0  0  0  0
  -12.6419   38.0246  -17.6994 Cl  0  0  0  0  0  0  0  0  0  0  0  0
  -14.7152   39.7047  -17.8510 O   0  0  0  0  0  0  0  0  0  0  0  0
  -20.3336   42.2741  -18.8154 C   0  0  0  0  0  0  0  0  0  0  0  0
  -21.8307   42.3331  -18.8882 F   0  0  0  0  0  0  0  0  0  0  0  0
  -20.2583   42.3382  -20.3122 F   0  0  0  0  0  0  0  0  0  0  0  0
  -20.4089   42.2101  -17.3187 F   0  0  0  0  0  0  0  0  0  0  0  0
  1  2  1  0  0  0
  2  3  2  0  0  0
  3 28  1  0  0  0
 28 29  1  0  0  0
 28 30  1  0  0  0
 28 31  1  0  0  0
  3  4  1  0  0  0
  4  5  2  0  0  0
  5 22  1  0  0  0
 22 23  2  0  0  0
 23 24  1  0  0  0
 24 25  2  0  0  0
 25 26  1  0  0  0
 25 27  1  0  0  0
  5  6  1  0  0  0
  6  7  1  0  0  0
  7  8  2  0  0  0
  8  9  1  0  0  0
  8 10  1  0  0  0
 10 11  2  0  0  0
 11 12  1  0  0  0
 12 15  1  0  0  0
 15 16  1  0  0  0
 16 17  1  0  0  0
 17 19  1  0  0  0
 19 20  1  0  0  0
 19 21  1  0  0  0
 17 18  1  0  0  0
 12 13  2  0  0  0
 13 14  1  0  0  0
  6  2  1  0  0  0
 13  7  1  0  0  0
 27 22  1  0  0  0
 18 15  1  0  0  0
M  END
> <minimizedAffinity>
-5.02960

$$$$



 31 34  0  0  0  0  0  0  0  0999 V2000
  -10.7497   48.8647  -14.0113 C   0  0  0  0  0  0  0  0  0  0  0  0
   -9.5055   48.1369  -14.4261 C   0  0  0  0  0  0  0  0  0  0  0  0
   -8.2297   48.7695  -14.8974 C   0  0  0  0  0  0  0  0  0  0  0  0
   -7.2542   47.6722  -15.2050 N   0  0  0  0  0  0  0  0  0  0  0  0
   -7.9272   46.3615  -14.9238 C   0  0  0  0  0  0  0  0  0  0  0  0
   -9.3185   46.6487  -14.4423 N   0  0  0  0  0  0  0  0  0  0  0  0
  -10.3430   45.6269  -14.0466 C   0  0  0  0  0  0  0  0  0  0  0  0
  -10.2606   44.9632  -12.7041 C   0  0  0  0  0  0  0  0  0  0  0  0
   -9.3183   45.0750  -11.5424 Cl  0  0  0  0  0  0  0  0  0  0  0  0
  -11.2851   43.9415  -12.3084 C   0  0  0  0  0  0  0  0  0  0  0  0
  -12.3919   43.5835  -13.2554 C   0  0  0  0  0  0  0  0  0  0  0  0
  -12.4743   44.2473  -14.5980 C   0  0  0  0  0  0  0  0  0  0  0  0
  -11.4499   45.2690  -14.9936 C   0  0  0  0  0  0  0  0  0  0  0  0
  -11.5322   45.9328  -16.3363 Cl  0  0  0  0  0  0  0  0  0  0  0  0
  -13.5812   43.8894  -15.5449 N   0  0  0  0  0  0  0  0  0  0  0  0
  -14.9673   44.4035  -15.7993 C   0  0  0  0  0  0  0  0  0  0  0  0
  -15.1465   43.3832  -16.8841 C   0  0  0  0  0  0  0  0  0  0  0  0
  -13.7605   42.8690  -16.6298 C   0  0  0  0  0  0  0  0  0  0  0  0
  -16.2534   43.0252  -17.8311 C   0  0  0  0  0  0  0  0  0  0  0  0
  -16.0287   43.1053  -19.3120 O   0  0  0  0  0  0  0  0  0  0  0  0
  -17.5849   42.5873  -17.2972 O   0  0  0  0  0  0  0  0  0  0  0  0
   -7.3160   45.0023  -15.0940 C   0  0  0  0  0  0  0  0  0  0  0  0
   -5.8910   44.7165  -15.4654 C   0  0  0  0  0  0  0  0  0  0  0  0
   -5.7169   43.2278  -15.5237 C   0  0  0  0  0  0  0  0  0  0  0  0
   -7.0342   42.5935  -15.1884 C   0  0  0  0  0  0  0  0  0  0  0  0
   -7.3141   41.1210  -15.1290 Cl  0  0  0  0  0  0  0  0  0  0  0  0
   -8.0224   43.6901  -14.9228 O   0  0  0  0  0  0  0  0  0  0  0  0
   -7.9742   50.2410  -15.0368 C   0  0  0  0  0  0  0  0  0  0  0  0
   -7.7187   51.7125  -15.1761 F   0  0  0  0  0  0  0  0  0  0  0  0
   -7.6040   50.3142  -13.5850 F   0  0  0  0  0  0  0  0  0  0  0  0
   -8.3444   50.1678  -16.4885 F   0  0  0  0  0  0  0  0  0  0  0  0
  1  2  1  0  0  0
  2  3  2  0  0  0
  3 28  1  0  0  0
 28 29  1  0  0  0
 28 30  1  0  0  0
 28 31  1  0  0  0
  3  4  1  0  0  0
  4  5  2  0  0  0
  5 22  1  0  0  0
 22 23  2  0  0  0
 23 24  1  0  0  0
 24 25  2  0  0  0
 25 26  1  0  0  0
 25 27  1  0  0  0
  5  6  1  0  0  0
  6  7  1  0  0  0
  7  8  2  0  0  0
  8  9  1  0  0  0
  8 10  1  0  0  0
 10 11  2  0  0  0
 11 12  1  0  0  0
 12 15  1  0  0  0
 15 16  1  0  0  0
 16 17  1  0  0  0
 17 19  1  0  0  0
 19 20  1  0  0  0
 19 21  1  0  0  0
 17 18  1  0  0  0
 12 13  2  0  0  0
 13 14  1  0  0  0
  6  2  1  0  0  0
 13  7  1  0  0  0
 27 22  1  0  0  0
 18 15  1  0  0  0
M  END
> <minimizedAffinity>
-4.92304

$$$$



 31 34  0  0  0  0  0  0  0  0999 V2000
  -10.5246   42.7266  -16.0129 C   0  0  0  0  0  0  0  0  0  0  0  0
  -11.8656   43.3735  -15.8308 C   0  0  0  0  0  0  0  0  0  0  0  0
  -12.4236   43.8980  -14.5411 C   0  0  0  0  0  0  0  0  0  0  0  0
  -13.7870   44.4581  -14.8196 N   0  0  0  0  0  0  0  0  0  0  0  0
  -14.0716   44.2796  -16.2815 C   0  0  0  0  0  0  0  0  0  0  0  0
  -12.8841   43.6093  -16.9065 N   0  0  0  0  0  0  0  0  0  0  0  0
  -12.7404   43.2397  -18.3532 C   0  0  0  0  0  0  0  0  0  0  0  0
  -12.3327   44.2783  -19.3557 C   0  0  0  0  0  0  0  0  0  0  0  0
  -11.9994   45.7381  -19.2670 Cl  0  0  0  0  0  0  0  0  0  0  0  0
  -12.1890   43.9086  -20.8023 C   0  0  0  0  0  0  0  0  0  0  0  0
  -12.4530   42.5004  -21.2464 C   0  0  0  0  0  0  0  0  0  0  0  0
  -12.8607   41.4618  -20.2439 C   0  0  0  0  0  0  0  0  0  0  0  0
  -13.0044   41.8315  -18.7973 C   0  0  0  0  0  0  0  0  0  0  0  0
  -13.4122   40.7929  -17.7947 Cl  0  0  0  0  0  0  0  0  0  0  0  0
  -13.1248   40.0536  -20.6880 N   0  0  0  0  0  0  0  0  0  0  0  0
  -12.3071   38.7993  -20.7794 C   0  0  0  0  0  0  0  0  0  0  0  0
  -13.4982   38.0621  -21.3160 C   0  0  0  0  0  0  0  0  0  0  0  0
  -14.3158   39.3163  -21.2245 C   0  0  0  0  0  0  0  0  0  0  0  0
  -13.7622   36.6539  -21.7601 C   0  0  0  0  0  0  0  0  0  0  0  0
  -14.1439   36.3756  -23.1837 O   0  0  0  0  0  0  0  0  0  0  0  0
  -13.6446   35.5241  -20.7805 O   0  0  0  0  0  0  0  0  0  0  0  0
  -15.3238   44.6980  -16.9935 C   0  0  0  0  0  0  0  0  0  0  0  0
  -16.7263   44.5061  -16.4971 C   0  0  0  0  0  0  0  0  0  0  0  0
  -17.6627   45.0712  -17.5236 C   0  0  0  0  0  0  0  0  0  0  0  0
  -16.8390   45.6126  -18.6544 C   0  0  0  0  0  0  0  0  0  0  0  0
  -17.3679   46.2692  -19.8949 Cl  0  0  0  0  0  0  0  0  0  0  0  0
  -15.3936   45.3819  -18.3267 O   0  0  0  0  0  0  0  0  0  0  0  0
  -11.7385   43.8679  -13.2070 C   0  0  0  0  0  0  0  0  0  0  0  0
  -11.0534   43.8377  -11.8729 F   0  0  0  0  0  0  0  0  0  0  0  0
  -11.2924   45.2864  -13.4041 F   0  0  0  0  0  0  0  0  0  0  0  0
  -12.1847   42.4494  -13.0100 F   0  0  0  0  0  0  0  0  0  0  0  0
  1  2  1  0  0  0
  2  3  2  0  0  0
  3 28  1  0  0  0
 28 29  1  0  0  0
 28 30  1  0  0  0
 28 31  1  0  0  0
  3  4  1  0  0  0
  4  5  2  0  0  0
  5 22  1  0  0  0
 22 23  2  0  0  0
 23 24  1  0  0  0
 24 25  2  0  0  0
 25 26  1  0  0  0
 25 27  1  0  0  0
  5  6  1  0  0  0
  6  7  1  0  0  0
  7  8  2  0  0  0
  8  9  1  0  0  0
  8 10  1  0  0  0
 10 11  2  0  0  0
 11 12  1  0  0  0
 12 15  1  0  0  0
 15 16  1  0  0  0
 16 17  1  0  0  0
 17 19  1  0  0  0
 19 20  1  0  0  0
 19 21  1  0  0  0
 17 18  1  0  0  0
 12 13  2  0  0  0
 13 14  1  0  0  0
  6  2  1  0  0  0
 13  7  1  0  0  0
 27 22  1  0  0  0
 18 15  1  0  0  0
M  END
> <minimizedAffinity>
-4.89114

$$$$
