


 29 32  0  0  0  0  0  0  0  0999 V2000
  -22.1804   -5.1278    5.3200 C   0  0  0  0  0  0  0  0  0  0  0  0
  -21.8517   -3.7532    5.8222 C   0  0  0  0  0  0  0  0  0  0  0  0
  -21.6940   -3.8294    7.3120 C   0  0  0  0  0  0  0  0  0  0  0  0
  -21.9253   -5.2511    7.7304 C   0  0  0  0  0  0  0  0  0  0  0  0
  -21.9010   -5.9187    9.0735 C   0  0  0  0  0  0  0  0  0  0  0  0
  -21.6004   -5.1162   10.3046 C   0  0  0  0  0  0  0  0  0  0  0  0
  -21.5762   -5.7837   11.6476 C   0  0  0  0  0  0  0  0  0  0  0  0
  -21.8525   -7.2539   11.7596 C   0  0  0  0  0  0  0  0  0  0  0  0
  -21.8282   -7.9214   13.1026 C   0  0  0  0  0  0  0  0  0  0  0  0
  -22.1046   -9.3914   13.2145 C   0  0  0  0  0  0  0  0  0  0  0  0
  -22.0803  -10.0591   14.5576 O   0  0  0  0  0  0  0  0  0  0  0  0
  -22.4052  -10.1939   11.9834 C   0  0  0  0  0  0  0  0  0  0  0  0
  -22.4295   -9.5264   10.6404 C   0  0  0  0  0  0  0  0  0  0  0  0
  -22.1531   -8.0564   10.5285 C   0  0  0  0  0  0  0  0  0  0  0  0
  -22.4538   -8.8588    9.2974 C   0  0  0  0  0  0  0  0  0  0  0  0
  -22.1774   -7.3887    9.1854 C   0  0  0  0  0  0  0  0  0  0  0  0
  -22.4780   -8.1912    7.9543 C   0  0  0  0  0  0  0  0  0  0  0  0
  -22.5023   -7.5237    6.6113 C   0  0  0  0  0  0  0  0  0  0  0  0
  -22.2259   -6.0536    6.4993 C   0  0  0  0  0  0  0  0  0  0  0  0
  -22.5097   -6.7227    5.1872 C   0  0  0  0  0  0  0  0  0  0  0  0
  -23.8007   -5.4097    3.3086 C   0  0  0  0  0  0  0  0  0  0  0  0
  -22.4213   -5.5096    3.8895 C   0  0  0  0  0  0  0  0  0  0  0  0
  -21.2828   -5.9913    3.0400 C   0  0  0  0  0  0  0  0  0  0  0  0
  -20.7632   -5.1326    1.9252 C   0  0  0  0  0  0  0  0  0  0  0  0
  -19.6635   -4.1469    2.1880 C   0  0  0  0  0  0  0  0  0  0  0  0
  -19.6835   -2.8048    1.5183 C   0  0  0  0  0  0  0  0  0  0  0  0
  -20.5136   -3.3725    0.4053 C   0  0  0  0  0  0  0  0  0  0  0  0
  -18.8535   -2.2371    2.6313 C   0  0  0  0  0  0  0  0  0  0  0  0
  -19.7035   -1.4627    0.8487 O   0  0  0  0  0  0  0  0  0  0  0  0
 22 21  1  0  0  0
 22 23  1  0  0  0
 23 24  1  0  0  0
 24 25  1  0  0  0
 25 26  1  0  0  0
 26 27  1  0  0  0
 26 28  1  0  0  0
 26 29  1  0  0  0
 22  1  1  0  0  0
  1  2  1  0  0  0
  2  3  1  0  0  0
  4  3  1  0  0  0
  4  5  1  0  0  0
  5  6  1  0  0  0
  6  7  1  0  0  0
  7  8  1  0  0  0
  8  9  1  0  0  0
  9 10  1  0  0  0
 10 11  1  0  0  0
 10 12  1  0  0  0
 12 13  1  0  0  0
 13 14  1  0  0  0
 14 15  1  0  0  0
 14 16  1  0  0  0
 16 17  1  0  0  0
 17 18  1  0  0  0
 18 19  1  0  0  0
 19 20  1  0  0  0
 19  1  1  0  0  0
 19  4  1  0  0  0
 16  5  1  0  0  0
 14  8  1  0  0  0
M  END
> <minimizedAffinity>
-10.09604

$$$$



 29 32  0  0  0  0  0  0  0  0999 V2000
  -23.3741   -5.8942    5.2144 C   0  0  0  0  0  0  0  0  0  0  0  0
  -22.9594   -7.3223    5.0184 C   0  0  0  0  0  0  0  0  0  0  0  0
  -22.5538   -7.8744    6.3529 C   0  0  0  0  0  0  0  0  0  0  0  0
  -22.7179   -6.7875    7.3734 C   0  0  0  0  0  0  0  0  0  0  0  0
  -22.4711   -6.7540    8.8527 C   0  0  0  0  0  0  0  0  0  0  0  0
  -21.9641   -7.9779    9.5563 C   0  0  0  0  0  0  0  0  0  0  0  0
  -21.7173   -7.9445   11.0354 C   0  0  0  0  0  0  0  0  0  0  0  0
  -21.9775   -6.6871   11.8110 C   0  0  0  0  0  0  0  0  0  0  0  0
  -21.7307   -6.6537   13.2902 C   0  0  0  0  0  0  0  0  0  0  0  0
  -21.9909   -5.3964   14.0657 C   0  0  0  0  0  0  0  0  0  0  0  0
  -21.7441   -5.3629   15.5449 O   0  0  0  0  0  0  0  0  0  0  0  0
  -22.4979   -4.1725   13.3620 C   0  0  0  0  0  0  0  0  0  0  0  0
  -22.7447   -4.2060   11.8829 C   0  0  0  0  0  0  0  0  0  0  0  0
  -22.4845   -5.4633   11.1074 C   0  0  0  0  0  0  0  0  0  0  0  0
  -22.9915   -4.2394   10.4037 C   0  0  0  0  0  0  0  0  0  0  0  0
  -22.7313   -5.4967    9.6282 C   0  0  0  0  0  0  0  0  0  0  0  0
  -23.2383   -4.2729    8.9245 C   0  0  0  0  0  0  0  0  0  0  0  0
  -23.4851   -4.3063    7.4454 C   0  0  0  0  0  0  0  0  0  0  0  0
  -23.2249   -5.5636    6.6698 C   0  0  0  0  0  0  0  0  0  0  0  0
  -23.7283   -4.4243    5.8340 C   0  0  0  0  0  0  0  0  0  0  0  0
  -25.3019   -4.9488    3.7513 C   0  0  0  0  0  0  0  0  0  0  0  0
  -23.8539   -4.9605    4.1428 C   0  0  0  0  0  0  0  0  0  0  0  0
  -22.8857   -4.0385    3.4628 C   0  0  0  0  0  0  0  0  0  0  0  0
  -21.7787   -4.6014    2.6215 C   0  0  0  0  0  0  0  0  0  0  0  0
  -20.4733   -3.8705    2.5130 C   0  0  0  0  0  0  0  0  0  0  0  0
  -19.8742   -3.6015    1.1644 C   0  0  0  0  0  0  0  0  0  0  0  0
  -19.3694   -2.2762    1.6529 C   0  0  0  0  0  0  0  0  0  0  0  0
  -20.3790   -4.9268    0.6758 C   0  0  0  0  0  0  0  0  0  0  0  0
  -19.2751   -3.3325   -0.1843 O   0  0  0  0  0  0  0  0  0  0  0  0
 22 21  1  0  0  0
 22 23  1  0  0  0
 23 24  1  0  0  0
 24 25  1  0  0  0
 25 26  1  0  0  0
 26 27  1  0  0  0
 26 28  1  0  0  0
 26 29  1  0  0  0
 22  1  1  0  0  0
  1  2  1  0  0  0
  2  3  1  0  0  0
  4  3  1  0  0  0
  4  5  1  0  0  0
  5  6  1  0  0  0
  6  7  1  0  0  0
  7  8  1  0  0  0
  8  9  1  0  0  0
  9 10  1  0  0  0
 10 11  1  0  0  0
 10 12  1  0  0  0
 12 13  1  0  0  0
 13 14  1  0  0  0
 14 15  1  0  0  0
 14 16  1  0  0  0
 16 17  1  0  0  0
 17 18  1  0  0  0
 18 19  1  0  0  0
 19 20  1  0  0  0
 19  1  1  0  0  0
 19  4  1  0  0  0
 16  5  1  0  0  0
 14  8  1  0  0  0
M  END
> <minimizedAffinity>
-9.93396

$$$$



 29 32  0  0  0  0  0  0  0  0999 V2000
  -23.2329   -5.9014    8.0438 C   0  0  0  0  0  0  0  0  0  0  0  0
  -23.0901   -7.3935    7.9863 C   0  0  0  0  0  0  0  0  0  0  0  0
  -22.4646   -7.7488    6.6701 C   0  0  0  0  0  0  0  0  0  0  0  0
  -22.2208   -6.4764    5.9142 C   0  0  0  0  0  0  0  0  0  0  0  0
  -21.6277   -6.2099    4.5624 C   0  0  0  0  0  0  0  0  0  0  0  0
  -21.1528   -7.3516    3.7134 C   0  0  0  0  0  0  0  0  0  0  0  0
  -20.5598   -7.0851    2.3617 C   0  0  0  0  0  0  0  0  0  0  0  0
  -20.4416   -5.6768    1.8589 C   0  0  0  0  0  0  0  0  0  0  0  0
  -19.8486   -5.4103    0.5071 C   0  0  0  0  0  0  0  0  0  0  0  0
  -19.7304   -4.0020    0.0044 C   0  0  0  0  0  0  0  0  0  0  0  0
  -19.1374   -3.7355   -1.3474 O   0  0  0  0  0  0  0  0  0  0  0  0
  -20.2053   -2.8603    0.8535 C   0  0  0  0  0  0  0  0  0  0  0  0
  -20.7984   -3.1268    2.2052 C   0  0  0  0  0  0  0  0  0  0  0  0
  -20.9165   -4.5350    2.7079 C   0  0  0  0  0  0  0  0  0  0  0  0
  -21.3914   -3.3933    3.5569 C   0  0  0  0  0  0  0  0  0  0  0  0
  -21.5096   -4.8016    4.0597 C   0  0  0  0  0  0  0  0  0  0  0  0
  -21.9845   -3.6598    4.9087 C   0  0  0  0  0  0  0  0  0  0  0  0
  -22.5775   -3.9263    6.2605 C   0  0  0  0  0  0  0  0  0  0  0  0
  -22.6957   -5.3347    6.7632 C   0  0  0  0  0  0  0  0  0  0  0  0
  -23.2109   -4.3002    7.7195 C   0  0  0  0  0  0  0  0  0  0  0  0
  -25.2958   -4.9243    9.2848 C   0  0  0  0  0  0  0  0  0  0  0  0
  -23.8115   -5.1144    9.1822 C   0  0  0  0  0  0  0  0  0  0  0  0
  -22.9056   -4.5174   10.2181 C   0  0  0  0  0  0  0  0  0  0  0  0
  -23.0543   -4.9072   11.6589 C   0  0  0  0  0  0  0  0  0  0  0  0
  -22.8152   -3.8938   12.7386 C   0  0  0  0  0  0  0  0  0  0  0  0
  -23.9703   -3.3501   13.5261 C   0  0  0  0  0  0  0  0  0  0  0  0
  -24.2967   -4.7344   14.0029 C   0  0  0  0  0  0  0  0  0  0  0  0
  -23.6439   -1.9659   13.0492 C   0  0  0  0  0  0  0  0  0  0  0  0
  -25.1254   -2.8065   14.3136 O   0  0  0  0  0  0  0  0  0  0  0  0
 22 21  1  0  0  0
 22 23  1  0  0  0
 23 24  1  0  0  0
 24 25  1  0  0  0
 25 26  1  0  0  0
 26 27  1  0  0  0
 26 28  1  0  0  0
 26 29  1  0  0  0
 22  1  1  0  0  0
  1  2  1  0  0  0
  2  3  1  0  0  0
  4  3  1  0  0  0
  4  5  1  0  0  0
  5  6  1  0  0  0
  6  7  1  0  0  0
  7  8  1  0  0  0
  8  9  1  0  0  0
  9 10  1  0  0  0
 10 11  1  0  0  0
 10 12  1  0  0  0
 12 13  1  0  0  0
 13 14  1  0  0  0
 14 15  1  0  0  0
 14 16  1  0  0  0
 16 17  1  0  0  0
 17 18  1  0  0  0
 18 19  1  0  0  0
 19 20  1  0  0  0
 19  1  1  0  0  0
 19  4  1  0  0  0
 16  5  1  0  0  0
 14  8  1  0  0  0
M  END
> <minimizedAffinity>
-9.42959

$$$$



 29 32  0  0  0  0  0  0  0  0999 V2000
  -22.6663   -5.6799   11.5166 C   0  0  0  0  0  0  0  0  0  0  0  0
  -22.7770   -7.1731   11.6075 C   0  0  0  0  0  0  0  0  0  0  0  0
  -22.6368   -7.7333   10.2231 C   0  0  0  0  0  0  0  0  0  0  0  0
  -22.4395   -6.5864    9.2768 C   0  0  0  0  0  0  0  0  0  0  0  0
  -22.2455   -6.5337    7.7902 C   0  0  0  0  0  0  0  0  0  0  0  0
  -22.2273   -7.8028    6.9908 C   0  0  0  0  0  0  0  0  0  0  0  0
  -22.0334   -7.7501    5.5043 C   0  0  0  0  0  0  0  0  0  0  0  0
  -21.8577   -6.4282    4.8173 C   0  0  0  0  0  0  0  0  0  0  0  0
  -21.6637   -6.3755    3.3308 C   0  0  0  0  0  0  0  0  0  0  0  0
  -21.4880   -5.0538    2.6438 C   0  0  0  0  0  0  0  0  0  0  0  0
  -21.2941   -5.0010    1.1573 O   0  0  0  0  0  0  0  0  0  0  0  0
  -21.5063   -3.7847    3.4433 C   0  0  0  0  0  0  0  0  0  0  0  0
  -21.7002   -3.8374    4.9297 C   0  0  0  0  0  0  0  0  0  0  0  0
  -21.8759   -5.1592    5.6167 C   0  0  0  0  0  0  0  0  0  0  0  0
  -21.8941   -3.8901    6.4162 C   0  0  0  0  0  0  0  0  0  0  0  0
  -22.0698   -5.2119    7.1033 C   0  0  0  0  0  0  0  0  0  0  0  0
  -22.0881   -3.9428    7.9027 C   0  0  0  0  0  0  0  0  0  0  0  0
  -22.2820   -3.9955    9.3892 C   0  0  0  0  0  0  0  0  0  0  0  0
  -22.4577   -5.3174   10.0762 C   0  0  0  0  0  0  0  0  0  0  0  0
  -22.4981   -4.1381   11.0024 C   0  0  0  0  0  0  0  0  0  0  0  0
  -21.5353   -4.4411   13.5007 C   0  0  0  0  0  0  0  0  0  0  0  0
  -22.7496   -4.7182   12.6648 C   0  0  0  0  0  0  0  0  0  0  0  0
  -24.0472   -4.0336   12.9770 C   0  0  0  0  0  0  0  0  0  0  0  0
  -24.5206   -3.9353   14.3970 C   0  0  0  0  0  0  0  0  0  0  0  0
  -24.5858   -2.5988   15.0749 C   0  0  0  0  0  0  0  0  0  0  0  0
  -23.5590   -2.2289   16.1039 C   0  0  0  0  0  0  0  0  0  0  0  0
  -23.8972   -3.4639   16.8853 C   0  0  0  0  0  0  0  0  0  0  0  0
  -23.2209   -0.9940   15.3226 C   0  0  0  0  0  0  0  0  0  0  0  0
  -22.5322   -1.8591   17.1329 O   0  0  0  0  0  0  0  0  0  0  0  0
 22 21  1  0  0  0
 22 23  1  0  0  0
 23 24  1  0  0  0
 24 25  1  0  0  0
 25 26  1  0  0  0
 26 27  1  0  0  0
 26 28  1  0  0  0
 26 29  1  0  0  0
 22  1  1  0  0  0
  1  2  1  0  0  0
  2  3  1  0  0  0
  4  3  1  0  0  0
  4  5  1  0  0  0
  5  6  1  0  0  0
  6  7  1  0  0  0
  7  8  1  0  0  0
  8  9  1  0  0  0
  9 10  1  0  0  0
 10 11  1  0  0  0
 10 12  1  0  0  0
 12 13  1  0  0  0
 13 14  1  0  0  0
 14 15  1  0  0  0
 14 16  1  0  0  0
 16 17  1  0  0  0
 17 18  1  0  0  0
 18 19  1  0  0  0
 19 20  1  0  0  0
 19  1  1  0  0  0
 19  4  1  0  0  0
 16  5  1  0  0  0
 14  8  1  0  0  0
M  END
> <minimizedAffinity>
-9.32061

$$$$



 29 32  0  0  0  0  0  0  0  0999 V2000
  -23.1796   -7.1017    8.3617 C   0  0  0  0  0  0  0  0  0  0  0  0
  -22.6610   -8.4067    8.8891 C   0  0  0  0  0  0  0  0  0  0  0  0
  -22.3800   -8.2362   10.3526 C   0  0  0  0  0  0  0  0  0  0  0  0
  -22.7249   -6.8260   10.7297 C   0  0  0  0  0  0  0  0  0  0  0  0
  -22.6528   -6.0897   12.0346 C   0  0  0  0  0  0  0  0  0  0  0  0
  -22.1586   -6.7909   13.2651 C   0  0  0  0  0  0  0  0  0  0  0  0
  -22.0865   -6.0547   14.5699 C   0  0  0  0  0  0  0  0  0  0  0  0
  -22.5087   -4.6171   14.6444 C   0  0  0  0  0  0  0  0  0  0  0  0
  -22.4366   -3.8809   15.9492 C   0  0  0  0  0  0  0  0  0  0  0  0
  -22.8587   -2.4435   16.0236 C   0  0  0  0  0  0  0  0  0  0  0  0
  -22.7866   -1.7071   17.3285 O   0  0  0  0  0  0  0  0  0  0  0  0
  -23.3529   -1.7423   14.7931 C   0  0  0  0  0  0  0  0  0  0  0  0
  -23.4250   -2.4785   13.4882 C   0  0  0  0  0  0  0  0  0  0  0  0
  -23.0028   -3.9160   13.4139 C   0  0  0  0  0  0  0  0  0  0  0  0
  -23.4970   -3.2148   12.1834 C   0  0  0  0  0  0  0  0  0  0  0  0
  -23.0749   -4.6523   12.1090 C   0  0  0  0  0  0  0  0  0  0  0  0
  -23.5691   -3.9511   10.8785 C   0  0  0  0  0  0  0  0  0  0  0  0
  -23.6412   -4.6874    9.5736 C   0  0  0  0  0  0  0  0  0  0  0  0
  -23.2191   -6.1249    9.4992 C   0  0  0  0  0  0  0  0  0  0  0  0
  -23.6895   -5.5586    8.1922 C   0  0  0  0  0  0  0  0  0  0  0  0
  -25.0224   -6.5313    6.6213 C   0  0  0  0  0  0  0  0  0  0  0  0
  -23.5871   -6.8227    6.9453 C   0  0  0  0  0  0  0  0  0  0  0  0
  -22.5593   -6.8351    5.8529 C   0  0  0  0  0  0  0  0  0  0  0  0
  -22.9889   -6.9476    4.4201 C   0  0  0  0  0  0  0  0  0  0  0  0
  -23.0121   -5.7288    3.5461 C   0  0  0  0  0  0  0  0  0  0  0  0
  -24.2753   -4.9327    3.4026 C   0  0  0  0  0  0  0  0  0  0  0  0
  -24.9975   -6.1625    2.9379 C   0  0  0  0  0  0  0  0  0  0  0  0
  -23.5530   -3.7029    3.8673 C   0  0  0  0  0  0  0  0  0  0  0  0
  -25.5385   -4.1366    3.2591 O   0  0  0  0  0  0  0  0  0  0  0  0
 22 21  1  0  0  0
 22 23  1  0  0  0
 23 24  1  0  0  0
 24 25  1  0  0  0
 25 26  1  0  0  0
 26 27  1  0  0  0
 26 28  1  0  0  0
 26 29  1  0  0  0
 22  1  1  0  0  0
  1  2  1  0  0  0
  2  3  1  0  0  0
  4  3  1  0  0  0
  4  5  1  0  0  0
  5  6  1  0  0  0
  6  7  1  0  0  0
  7  8  1  0  0  0
  8  9  1  0  0  0
  9 10  1  0  0  0
 10 11  1  0  0  0
 10 12  1  0  0  0
 12 13  1  0  0  0
 13 14  1  0  0  0
 14 15  1  0  0  0
 14 16  1  0  0  0
 16 17  1  0  0  0
 17 18  1  0  0  0
 18 19  1  0  0  0
 19 20  1  0  0  0
 19  1  1  0  0  0
 19  4  1  0  0  0
 16  5  1  0  0  0
 14  8  1  0  0  0
M  END
> <minimizedAffinity>
-9.16326

$$$$



 29 32  0  0  0  0  0  0  0  0999 V2000
  -21.8769   -6.0125    4.6691 C   0  0  0  0  0  0  0  0  0  0  0  0
  -22.1182   -7.4739    4.4324 C   0  0  0  0  0  0  0  0  0  0  0  0
  -22.2418   -8.1455    5.7680 C   0  0  0  0  0  0  0  0  0  0  0  0
  -22.0768   -7.0992    6.8299 C   0  0  0  0  0  0  0  0  0  0  0  0
  -22.1028   -7.1765    8.3278 C   0  0  0  0  0  0  0  0  0  0  0  0
  -22.3283   -8.4948    9.0069 C   0  0  0  0  0  0  0  0  0  0  0  0
  -22.3543   -8.5721   10.5047 C   0  0  0  0  0  0  0  0  0  0  0  0
  -22.1547   -7.3311   11.3234 C   0  0  0  0  0  0  0  0  0  0  0  0
  -22.1807   -7.4084   12.8211 C   0  0  0  0  0  0  0  0  0  0  0  0
  -21.9812   -6.1675   13.6397 C   0  0  0  0  0  0  0  0  0  0  0  0
  -22.0071   -6.2447   15.1375 O   0  0  0  0  0  0  0  0  0  0  0  0
  -21.7556   -4.8492   12.9605 C   0  0  0  0  0  0  0  0  0  0  0  0
  -21.7296   -4.7718   11.4628 C   0  0  0  0  0  0  0  0  0  0  0  0
  -21.9292   -6.0128   10.6442 C   0  0  0  0  0  0  0  0  0  0  0  0
  -21.7037   -4.6945    9.9650 C   0  0  0  0  0  0  0  0  0  0  0  0
  -21.9032   -5.9355    9.1464 C   0  0  0  0  0  0  0  0  0  0  0  0
  -21.6777   -4.6172    8.4672 C   0  0  0  0  0  0  0  0  0  0  0  0
  -21.6517   -4.5399    6.9695 C   0  0  0  0  0  0  0  0  0  0  0  0
  -21.8512   -5.7809    6.1508 C   0  0  0  0  0  0  0  0  0  0  0  0
  -21.6374   -4.5400    5.3356 C   0  0  0  0  0  0  0  0  0  0  0  0
  -20.5428   -5.0623    2.6522 C   0  0  0  0  0  0  0  0  0  0  0  0
  -21.6933   -4.9664    3.6098 C   0  0  0  0  0  0  0  0  0  0  0  0
  -22.6604   -3.8243    3.5082 C   0  0  0  0  0  0  0  0  0  0  0  0
  -24.0219   -4.0446    2.9184 C   0  0  0  0  0  0  0  0  0  0  0  0
  -25.1749   -4.4058    3.8073 C   0  0  0  0  0  0  0  0  0  0  0  0
  -25.4228   -5.8404    4.1685 C   0  0  0  0  0  0  0  0  0  0  0  0
  -25.2775   -6.2285    2.7269 C   0  0  0  0  0  0  0  0  0  0  0  0
  -25.5681   -5.4522    5.6101 C   0  0  0  0  0  0  0  0  0  0  0  0
  -25.6706   -7.2750    4.5298 O   0  0  0  0  0  0  0  0  0  0  0  0
 22 21  1  0  0  0
 22 23  1  0  0  0
 23 24  1  0  0  0
 24 25  1  0  0  0
 25 26  1  0  0  0
 26 27  1  0  0  0
 26 28  1  0  0  0
 26 29  1  0  0  0
 22  1  1  0  0  0
  1  2  1  0  0  0
  2  3  1  0  0  0
  4  3  1  0  0  0
  4  5  1  0  0  0
  5  6  1  0  0  0
  6  7  1  0  0  0
  7  8  1  0  0  0
  8  9  1  0  0  0
  9 10  1  0  0  0
 10 11  1  0  0  0
 10 12  1  0  0  0
 12 13  1  0  0  0
 13 14  1  0  0  0
 14 15  1  0  0  0
 14 16  1  0  0  0
 16 17  1  0  0  0
 17 18  1  0  0  0
 18 19  1  0  0  0
 19 20  1  0  0  0
 19  1  1  0  0  0
 19  4  1  0  0  0
 16  5  1  0  0  0
 14  8  1  0  0  0
M  END
> <minimizedAffinity>
-8.90837

$$$$



 29 32  0  0  0  0  0  0  0  0999 V2000
  -23.9066   -6.1707    7.5692 C   0  0  0  0  0  0  0  0  0  0  0  0
  -23.3591   -7.5629    7.6782 C   0  0  0  0  0  0  0  0  0  0  0  0
  -22.8368   -7.7477    9.0721 C   0  0  0  0  0  0  0  0  0  0  0  0
  -23.0614   -6.4698    9.8245 C   0  0  0  0  0  0  0  0  0  0  0  0
  -22.7494   -6.0676   11.2355 C   0  0  0  0  0  0  0  0  0  0  0  0
  -22.0882   -7.0423   12.1644 C   0  0  0  0  0  0  0  0  0  0  0  0
  -21.7762   -6.6402   13.5754 C   0  0  0  0  0  0  0  0  0  0  0  0
  -22.1253   -5.2633   14.0576 C   0  0  0  0  0  0  0  0  0  0  0  0
  -21.8133   -4.8612   15.4685 C   0  0  0  0  0  0  0  0  0  0  0  0
  -22.1624   -3.4844   15.9506 C   0  0  0  0  0  0  0  0  0  0  0  0
  -21.8504   -3.0822   17.3617 O   0  0  0  0  0  0  0  0  0  0  0  0
  -22.8236   -2.5097   15.0217 C   0  0  0  0  0  0  0  0  0  0  0  0
  -23.1356   -2.9118   13.6108 C   0  0  0  0  0  0  0  0  0  0  0  0
  -22.7865   -4.2886   13.1287 C   0  0  0  0  0  0  0  0  0  0  0  0
  -23.4477   -3.3139   12.1998 C   0  0  0  0  0  0  0  0  0  0  0  0
  -23.0985   -4.6908   11.7176 C   0  0  0  0  0  0  0  0  0  0  0  0
  -23.7597   -3.7161   10.7888 C   0  0  0  0  0  0  0  0  0  0  0  0
  -24.0718   -4.1182    9.3778 C   0  0  0  0  0  0  0  0  0  0  0  0
  -23.7226   -5.4951    8.8956 C   0  0  0  0  0  0  0  0  0  0  0  0
  -24.3779   -4.6330    7.8576 C   0  0  0  0  0  0  0  0  0  0  0  0
  -25.8991   -5.9877    5.9118 C   0  0  0  0  0  0  0  0  0  0  0  0
  -24.5288   -5.5611    6.3479 C   0  0  0  0  0  0  0  0  0  0  0  0
  -23.7805   -4.5249    5.5628 C   0  0  0  0  0  0  0  0  0  0  0  0
  -23.7635   -4.5870    4.0642 C   0  0  0  0  0  0  0  0  0  0  0  0
  -23.0954   -5.7358    3.3686 C   0  0  0  0  0  0  0  0  0  0  0  0
  -21.5985   -5.8031    3.3003 C   0  0  0  0  0  0  0  0  0  0  0  0
  -21.5781   -4.5358    2.4982 C   0  0  0  0  0  0  0  0  0  0  0  0
  -21.6188   -7.0705    4.1024 C   0  0  0  0  0  0  0  0  0  0  0  0
  -20.1015   -5.8705    3.2320 O   0  0  0  0  0  0  0  0  0  0  0  0
 22 21  1  0  0  0
 22 23  1  0  0  0
 23 24  1  0  0  0
 24 25  1  0  0  0
 25 26  1  0  0  0
 26 27  1  0  0  0
 26 28  1  0  0  0
 26 29  1  0  0  0
 22  1  1  0  0  0
  1  2  1  0  0  0
  2  3  1  0  0  0
  4  3  1  0  0  0
  4  5  1  0  0  0
  5  6  1  0  0  0
  6  7  1  0  0  0
  7  8  1  0  0  0
  8  9  1  0  0  0
  9 10  1  0  0  0
 10 11  1  0  0  0
 10 12  1  0  0  0
 12 13  1  0  0  0
 13 14  1  0  0  0
 14 15  1  0  0  0
 14 16  1  0  0  0
 16 17  1  0  0  0
 17 18  1  0  0  0
 18 19  1  0  0  0
 19 20  1  0  0  0
 19  1  1  0  0  0
 19  4  1  0  0  0
 16  5  1  0  0  0
 14  8  1  0  0  0
M  END
> <minimizedAffinity>
-8.54757

$$$$



 29 32  0  0  0  0  0  0  0  0999 V2000
  -24.0254   -6.5074    5.9458 C   0  0  0  0  0  0  0  0  0  0  0  0
  -22.8757   -7.4474    5.7342 C   0  0  0  0  0  0  0  0  0  0  0  0
  -22.0323   -7.4346    6.9745 C   0  0  0  0  0  0  0  0  0  0  0  0
  -22.6606   -6.4867    7.9526 C   0  0  0  0  0  0  0  0  0  0  0  0
  -22.2702   -6.0713    9.3401 C   0  0  0  0  0  0  0  0  0  0  0  0
  -21.0384   -6.6443    9.9759 C   0  0  0  0  0  0  0  0  0  0  0  0
  -20.6480   -6.2289   11.3633 C   0  0  0  0  0  0  0  0  0  0  0  0
  -21.4895   -5.2405   12.1150 C   0  0  0  0  0  0  0  0  0  0  0  0
  -21.0991   -4.8251   13.5025 C   0  0  0  0  0  0  0  0  0  0  0  0
  -21.9406   -3.8367   14.2541 C   0  0  0  0  0  0  0  0  0  0  0  0
  -21.5502   -3.4213   15.6416 O   0  0  0  0  0  0  0  0  0  0  0  0
  -23.1724   -3.2637   13.6183 C   0  0  0  0  0  0  0  0  0  0  0  0
  -23.5628   -3.6791   12.2308 C   0  0  0  0  0  0  0  0  0  0  0  0
  -22.7213   -4.6675   11.4792 C   0  0  0  0  0  0  0  0  0  0  0  0
  -23.9531   -4.0944   10.8434 C   0  0  0  0  0  0  0  0  0  0  0  0
  -23.1117   -5.0829   10.0917 C   0  0  0  0  0  0  0  0  0  0  0  0
  -24.3435   -4.5099    9.4559 C   0  0  0  0  0  0  0  0  0  0  0  0
  -24.7339   -4.9252    8.0685 C   0  0  0  0  0  0  0  0  0  0  0  0
  -23.8924   -5.9137    7.3168 C   0  0  0  0  0  0  0  0  0  0  0  0
  -25.0903   -5.4285    6.5554 C   0  0  0  0  0  0  0  0  0  0  0  0
  -26.5446   -6.5084    5.3102 C   0  0  0  0  0  0  0  0  0  0  0  0
  -25.1164   -6.2129    4.9594 C   0  0  0  0  0  0  0  0  0  0  0  0
  -24.7792   -5.6230    3.6221 C   0  0  0  0  0  0  0  0  0  0  0  0
  -24.4035   -4.1748    3.5145 C   0  0  0  0  0  0  0  0  0  0  0  0
  -22.9682   -3.7848    3.3200 C   0  0  0  0  0  0  0  0  0  0  0  0
  -22.0211   -3.8057    4.4830 C   0  0  0  0  0  0  0  0  0  0  0  0
  -21.1007   -4.7092    3.7172 C   0  0  0  0  0  0  0  0  0  0  0  0
  -22.9416   -2.9023    5.2489 C   0  0  0  0  0  0  0  0  0  0  0  0
  -21.0741   -3.8266    5.6460 O   0  0  0  0  0  0  0  0  0  0  0  0
 22 21  1  0  0  0
 22 23  1  0  0  0
 23 24  1  0  0  0
 24 25  1  0  0  0
 25 26  1  0  0  0
 26 27  1  0  0  0
 26 28  1  0  0  0
 26 29  1  0  0  0
 22  1  1  0  0  0
  1  2  1  0  0  0
  2  3  1  0  0  0
  4  3  1  0  0  0
  4  5  1  0  0  0
  5  6  1  0  0  0
  6  7  1  0  0  0
  7  8  1  0  0  0
  8  9  1  0  0  0
  9 10  1  0  0  0
 10 11  1  0  0  0
 10 12  1  0  0  0
 12 13  1  0  0  0
 13 14  1  0  0  0
 14 15  1  0  0  0
 14 16  1  0  0  0
 16 17  1  0  0  0
 17 18  1  0  0  0
 18 19  1  0  0  0
 19 20  1  0  0  0
 19  1  1  0  0  0
 19  4  1  0  0  0
 16  5  1  0  0  0
 14  8  1  0  0  0
M  END
> <minimizedAffinity>
-8.50833

$$$$



 29 32  0  0  0  0  0  0  0  0999 V2000
  -21.7971   -4.3932    6.1855 C   0  0  0  0  0  0  0  0  0  0  0  0
  -21.4928   -3.1192    6.9164 C   0  0  0  0  0  0  0  0  0  0  0  0
  -21.4370   -3.4283    8.3831 C   0  0  0  0  0  0  0  0  0  0  0  0
  -21.7067   -4.8933    8.5587 C   0  0  0  0  0  0  0  0  0  0  0  0
  -21.7784   -5.7614    9.7799 C   0  0  0  0  0  0  0  0  0  0  0  0
  -21.5558   -5.1650   11.1381 C   0  0  0  0  0  0  0  0  0  0  0  0
  -21.6275   -6.0330   12.3593 C   0  0  0  0  0  0  0  0  0  0  0  0
  -21.9218   -7.4976   12.2223 C   0  0  0  0  0  0  0  0  0  0  0  0
  -21.9935   -8.3656   13.4435 C   0  0  0  0  0  0  0  0  0  0  0  0
  -22.2877   -9.8300   13.3064 C   0  0  0  0  0  0  0  0  0  0  0  0
  -22.3594  -10.6982   14.5276 O   0  0  0  0  0  0  0  0  0  0  0  0
  -22.5103  -10.4264   11.9482 C   0  0  0  0  0  0  0  0  0  0  0  0
  -22.4386   -9.5584   10.7270 C   0  0  0  0  0  0  0  0  0  0  0  0
  -22.1444   -8.0939   10.8641 C   0  0  0  0  0  0  0  0  0  0  0  0
  -22.3669   -8.6903    9.5058 C   0  0  0  0  0  0  0  0  0  0  0  0
  -22.0727   -7.2258    9.6429 C   0  0  0  0  0  0  0  0  0  0  0  0
  -22.2952   -7.8222    8.2846 C   0  0  0  0  0  0  0  0  0  0  0  0
  -22.2235   -6.9541    7.0635 C   0  0  0  0  0  0  0  0  0  0  0  0
  -21.9293   -5.4896    7.2005 C   0  0  0  0  0  0  0  0  0  0  0  0
  -22.1285   -5.9421    5.7843 C   0  0  0  0  0  0  0  0  0  0  0  0
  -21.2823   -5.6905    3.9941 C   0  0  0  0  0  0  0  0  0  0  0  0
  -21.9435   -4.5442    4.7003 C   0  0  0  0  0  0  0  0  0  0  0  0
  -22.7511   -3.5488    3.9213 C   0  0  0  0  0  0  0  0  0  0  0  0
  -24.0059   -3.9828    3.2235 C   0  0  0  0  0  0  0  0  0  0  0  0
  -25.1765   -4.4745    4.0221 C   0  0  0  0  0  0  0  0  0  0  0  0
  -25.4017   -5.9475    4.1937 C   0  0  0  0  0  0  0  0  0  0  0  0
  -25.7296   -5.7288    5.6410 C   0  0  0  0  0  0  0  0  0  0  0  0
  -25.0739   -6.1663    2.7465 C   0  0  0  0  0  0  0  0  0  0  0  0
  -25.6270   -7.4206    4.3654 O   0  0  0  0  0  0  0  0  0  0  0  0
 22 21  1  0  0  0
 22 23  1  0  0  0
 23 24  1  0  0  0
 24 25  1  0  0  0
 25 26  1  0  0  0
 26 27  1  0  0  0
 26 28  1  0  0  0
 26 29  1  0  0  0
 22  1  1  0  0  0
  1  2  1  0  0  0
  2  3  1  0  0  0
  4  3  1  0  0  0
  4  5  1  0  0  0
  5  6  1  0  0  0
  6  7  1  0  0  0
  7  8  1  0  0  0
  8  9  1  0  0  0
  9 10  1  0  0  0
 10 11  1  0  0  0
 10 12  1  0  0  0
 12 13  1  0  0  0
 13 14  1  0  0  0
 14 15  1  0  0  0
 14 16  1  0  0  0
 16 17  1  0  0  0
 17 18  1  0  0  0
 18 19  1  0  0  0
 19 20  1  0  0  0
 19  1  1  0  0  0
 19  4  1  0  0  0
 16  5  1  0  0  0
 14  8  1  0  0  0
M  END
> <minimizedAffinity>
-8.47314

$$$$



 39 43  0  0  0  0  0  0  0  0999 V2000
   -3.8570   27.5502    8.0758 O   0  0  0  0  0  0  0  0  0  0  0  0
   -3.0708   26.8272    9.1290 C   0  0  0  0  0  0  0  0  0  0  0  0
   -3.7377   26.4028   10.4037 N   0  0  0  0  0  0  0  0  0  0  0  0
   -5.1757   26.6306   10.7646 C   0  0  0  0  0  0  0  0  0  0  0  0
   -5.4106   26.0447   12.1253 C   0  0  0  0  0  0  0  0  0  0  0  0
   -4.1176   25.4548   12.6055 C   0  0  0  0  0  0  0  0  0  0  0  0
   -3.0838   25.6762   11.5414 C   0  0  0  0  0  0  0  0  0  0  0  0
   -1.6176   26.5286    8.9073 C   0  0  0  0  0  0  0  0  0  0  0  0
   -0.6873   27.6182    8.4630 C   0  0  0  0  0  0  0  0  0  0  0  0
    0.7659   27.3196    8.2414 C   0  0  0  0  0  0  0  0  0  0  0  0
    1.2887   25.9314    8.4641 S   0  0  0  0  0  0  0  0  0  0  0  0
    2.2508   24.7832    8.5419 O   0  0  0  0  0  0  0  0  0  0  0  0
    2.5531   26.6222    8.0469 O   0  0  0  0  0  0  0  0  0  0  0  0
    0.3585   24.8418    8.9084 C   0  0  0  0  0  0  0  0  0  0  0  0
   -1.0947   25.1405    9.1300 C   0  0  0  0  0  0  0  0  0  0  0  0
   -4.9161   25.0944   13.8230 C   0  0  0  0  0  0  0  0  0  0  0  0
   -5.2645   23.6608   14.0942 C   0  0  0  0  0  0  0  0  0  0  0  0
   -6.0629   23.3004   15.3118 C   0  0  0  0  0  0  0  0  0  0  0  0
   -6.5131   24.3736   16.2583 C   0  0  0  0  0  0  0  0  0  0  0  0
   -6.1647   25.8071   15.9871 C   0  0  0  0  0  0  0  0  0  0  0  0
   -5.3662   26.1675   14.7694 C   0  0  0  0  0  0  0  0  0  0  0  0
   -7.3115   24.0132   17.4759 O   0  0  0  0  0  0  0  0  0  0  0  0
   -8.3568   22.9403   17.3967 C   0  0  0  0  0  0  0  0  0  0  0  0
   -9.4636   23.0444   16.3896 C   0  0  0  0  0  0  0  0  0  0  0  0
   -9.9157   24.3914   15.9085 C   0  0  0  0  0  0  0  0  0  0  0  0
  -11.0224   24.4954   14.9014 C   0  0  0  0  0  0  0  0  0  0  0  0
  -11.6771   23.2526   14.3754 C   0  0  0  0  0  0  0  0  0  0  0  0
  -11.2251   21.9057   14.8564 C   0  0  0  0  0  0  0  0  0  0  0  0
  -10.1183   21.8015   15.8636 C   0  0  0  0  0  0  0  0  0  0  0  0
   -2.9917   24.7897   13.3401 S   0  0  0  0  0  0  0  0  0  0  0  0
   -3.0611   23.6275   12.3943 O   0  0  0  0  0  0  0  0  0  0  0  0
   -2.6858   25.6597   14.3260 O   0  0  0  0  0  0  0  0  0  0  0  0
   -1.8657   24.1246   14.0748 C   0  0  0  0  0  0  0  0  0  0  0  0
   -2.0298   23.7493   15.5177 C   0  0  0  0  0  0  0  0  0  0  0  0
   -0.9037   23.0841   16.2524 C   0  0  0  0  0  0  0  0  0  0  0  0
    0.3863   22.7943   15.5441 C   0  0  0  0  0  0  0  0  0  0  0  0
    1.5123   22.1292   16.2788 F   0  0  0  0  0  0  0  0  0  0  0  0
    0.5504   23.1696   14.1011 C   0  0  0  0  0  0  0  0  0  0  0  0
   -0.5756   23.8348   13.3665 C   0  0  0  0  0  0  0  0  0  0  0  0
  1  2  2  0  0  0
  2  8  1  0  0  0
  8  9  1  0  0  0
  9 10  1  0  0  0
 10 11  1  0  0  0
 11 12  2  0  0  0
 11 13  2  0  0  0
 11 14  1  0  0  0
 14 15  1  0  0  0
  2  3  1  0  0  0
  3  4  1  0  0  0
  4  5  1  0  0  0
  5  6  1  0  0  0
  6 16  1  0  0  0
 16 17  2  0  0  0
 17 18  1  0  0  0
 18 19  2  0  0  0
 19 22  1  0  0  0
 22 23  1  0  0  0
 23 24  1  0  0  0
 24 25  2  0  0  0
 25 26  1  0  0  0
 26 27  2  0  0  0
 27 28  1  0  0  0
 28 29  2  0  0  0
 19 20  1  0  0  0
 20 21  2  0  0  0
  6 30  1  0  0  0
 30 31  2  0  0  0
 30 32  2  0  0  0
 30 33  1  0  0  0
 33 34  2  0  0  0
 34 35  1  0  0  0
 35 36  2  0  0  0
 36 37  1  0  0  0
 36 38  1  0  0  0
 38 39  2  0  0  0
  6  7  1  0  0  0
 15  8  1  0  0  0
  7  3  1  0  0  0
 21 16  1  0  0  0
 39 33  1  0  0  0
 29 24  1  0  0  0
M  END
> <minimizedAffinity>
-4.42488

$$$$



 39 43  0  0  0  0  0  0  0  0999 V2000
   -0.9934   22.1075   11.9299 O   0  0  0  0  0  0  0  0  0  0  0  0
   -1.7610   23.2941   12.4326 C   0  0  0  0  0  0  0  0  0  0  0  0
   -3.0834   23.0985   13.1131 N   0  0  0  0  0  0  0  0  0  0  0  0
   -3.7612   21.7836   13.3613 C   0  0  0  0  0  0  0  0  0  0  0  0
   -5.0568   22.0558   14.0665 C   0  0  0  0  0  0  0  0  0  0  0  0
   -5.1798   23.5390   14.2540 C   0  0  0  0  0  0  0  0  0  0  0  0
   -3.9601   24.1834   13.6648 C   0  0  0  0  0  0  0  0  0  0  0  0
   -1.2063   24.6764   12.2547 C   0  0  0  0  0  0  0  0  0  0  0  0
   -1.5013   25.4475   11.0024 C   0  0  0  0  0  0  0  0  0  0  0  0
   -0.9465   26.8297   10.8246 C   0  0  0  0  0  0  0  0  0  0  0  0
   -0.0968   27.4408   11.8991 S   0  0  0  0  0  0  0  0  0  0  0  0
    0.7530   28.4403   12.6263 O   0  0  0  0  0  0  0  0  0  0  0  0
   -0.0966   28.5591   10.8993 O   0  0  0  0  0  0  0  0  0  0  0  0
    0.1982   26.6697   13.1514 C   0  0  0  0  0  0  0  0  0  0  0  0
   -0.3565   25.2875   13.3292 C   0  0  0  0  0  0  0  0  0  0  0  0
   -6.4820   23.1894   14.9112 C   0  0  0  0  0  0  0  0  0  0  0  0
   -7.7080   22.9676   14.0757 C   0  0  0  0  0  0  0  0  0  0  0  0
   -9.0102   22.6180   14.7329 C   0  0  0  0  0  0  0  0  0  0  0  0
   -9.0866   22.4902   16.2255 C   0  0  0  0  0  0  0  0  0  0  0  0
   -7.8607   22.7120   17.0609 C   0  0  0  0  0  0  0  0  0  0  0  0
   -6.5584   23.0616   16.4037 C   0  0  0  0  0  0  0  0  0  0  0  0
  -10.3889   22.1406   16.8827 O   0  0  0  0  0  0  0  0  0  0  0  0
  -11.6303   22.9117   16.5446 C   0  0  0  0  0  0  0  0  0  0  0  0
  -12.1984   22.8479   15.1579 C   0  0  0  0  0  0  0  0  0  0  0  0
  -13.0407   23.9759   14.6398 C   0  0  0  0  0  0  0  0  0  0  0  0
  -13.6088   23.9122   13.2530 C   0  0  0  0  0  0  0  0  0  0  0  0
  -13.3347   22.7205   12.3842 C   0  0  0  0  0  0  0  0  0  0  0  0
  -12.4924   21.5925   12.9022 C   0  0  0  0  0  0  0  0  0  0  0  0
  -11.9243   21.6562   14.2891 C   0  0  0  0  0  0  0  0  0  0  0  0
   -5.5749   24.9490   14.5789 S   0  0  0  0  0  0  0  0  0  0  0  0
   -4.4199   25.0535   15.5303 O   0  0  0  0  0  0  0  0  0  0  0  0
   -6.6696   25.1649   13.8189 O   0  0  0  0  0  0  0  0  0  0  0  0
   -5.9701   26.3591   14.9038 C   0  0  0  0  0  0  0  0  0  0  0  0
   -6.6510   26.6664   16.2046 C   0  0  0  0  0  0  0  0  0  0  0  0
   -7.0462   28.0765   16.5294 C   0  0  0  0  0  0  0  0  0  0  0  0
   -6.7605   29.1792   15.5535 C   0  0  0  0  0  0  0  0  0  0  0  0
   -7.1557   30.5893   15.8784 F   0  0  0  0  0  0  0  0  0  0  0  0
   -6.0796   28.8719   14.2528 C   0  0  0  0  0  0  0  0  0  0  0  0
   -5.6844   27.4618   13.9280 C   0  0  0  0  0  0  0  0  0  0  0  0
  1  2  2  0  0  0
  2  8  1  0  0  0
  8  9  1  0  0  0
  9 10  1  0  0  0
 10 11  1  0  0  0
 11 12  2  0  0  0
 11 13  2  0  0  0
 11 14  1  0  0  0
 14 15  1  0  0  0
  2  3  1  0  0  0
  3  4  1  0  0  0
  4  5  1  0  0  0
  5  6  1  0  0  0
  6 16  1  0  0  0
 16 17  2  0  0  0
 17 18  1  0  0  0
 18 19  2  0  0  0
 19 22  1  0  0  0
 22 23  1  0  0  0
 23 24  1  0  0  0
 24 25  2  0  0  0
 25 26  1  0  0  0
 26 27  2  0  0  0
 27 28  1  0  0  0
 28 29  2  0  0  0
 19 20  1  0  0  0
 20 21  2  0  0  0
  6 30  1  0  0  0
 30 31  2  0  0  0
 30 32  2  0  0  0
 30 33  1  0  0  0
 33 34  2  0  0  0
 34 35  1  0  0  0
 35 36  2  0  0  0
 36 37  1  0  0  0
 36 38  1  0  0  0
 38 39  2  0  0  0
  6  7  1  0  0  0
 15  8  1  0  0  0
  7  3  1  0  0  0
 21 16  1  0  0  0
 39 33  1  0  0  0
 29 24  1  0  0  0
M  END
> <minimizedAffinity>
-2.68380

$$$$



 39 43  0  0  0  0  0  0  0  0999 V2000
   -3.1231   22.5459   11.9047 O   0  0  0  0  0  0  0  0  0  0  0  0
   -3.3973   23.6501   12.8823 C   0  0  0  0  0  0  0  0  0  0  0  0
   -4.8079   23.9599   13.2875 N   0  0  0  0  0  0  0  0  0  0  0  0
   -6.0397   23.2552   12.8018 C   0  0  0  0  0  0  0  0  0  0  0  0
   -7.2275   23.8885   13.4637 C   0  0  0  0  0  0  0  0  0  0  0  0
   -6.7297   24.9847   14.3586 C   0  0  0  0  0  0  0  0  0  0  0  0
   -5.2343   25.0287   14.2497 C   0  0  0  0  0  0  0  0  0  0  0  0
   -2.2609   24.4445   13.4546 C   0  0  0  0  0  0  0  0  0  0  0  0
   -1.6263   25.5362   12.6450 C   0  0  0  0  0  0  0  0  0  0  0  0
   -0.4899   26.3305   13.2173 C   0  0  0  0  0  0  0  0  0  0  0  0
    0.0120   26.0331   14.5992 S   0  0  0  0  0  0  0  0  0  0  0  0
    0.8333   26.1261   15.8509 O   0  0  0  0  0  0  0  0  0  0  0  0
    0.9317   27.1571   14.2243 O   0  0  0  0  0  0  0  0  0  0  0  0
   -0.6226   24.9413   15.4088 C   0  0  0  0  0  0  0  0  0  0  0  0
   -1.7590   24.1470   14.8365 C   0  0  0  0  0  0  0  0  0  0  0  0
   -8.1846   25.1782   14.6681 C   0  0  0  0  0  0  0  0  0  0  0  0
   -8.9551   26.2752   13.9951 C   0  0  0  0  0  0  0  0  0  0  0  0
  -10.4100   26.4687   14.3046 C   0  0  0  0  0  0  0  0  0  0  0  0
  -11.0944   25.5653   15.2871 C   0  0  0  0  0  0  0  0  0  0  0  0
  -10.3239   24.4683   15.9601 C   0  0  0  0  0  0  0  0  0  0  0  0
   -8.8689   24.2748   15.6506 C   0  0  0  0  0  0  0  0  0  0  0  0
  -12.5493   25.7588   15.5966 O   0  0  0  0  0  0  0  0  0  0  0  0
  -13.5245   24.6479   15.3419 C   0  0  0  0  0  0  0  0  0  0  0  0
  -13.1984   23.5783   14.3420 C   0  0  0  0  0  0  0  0  0  0  0  0
  -12.4669   22.3430   14.7768 C   0  0  0  0  0  0  0  0  0  0  0  0
  -12.1408   21.2734   13.7770 C   0  0  0  0  0  0  0  0  0  0  0  0
  -12.5462   21.4391   12.3423 C   0  0  0  0  0  0  0  0  0  0  0  0
  -13.2777   22.6743   11.9075 C   0  0  0  0  0  0  0  0  0  0  0  0
  -13.6038   23.7440   12.9074 C   0  0  0  0  0  0  0  0  0  0  0  0
   -6.5360   26.1212   15.3181 S   0  0  0  0  0  0  0  0  0  0  0  0
   -6.1214   27.0092   14.1826 O   0  0  0  0  0  0  0  0  0  0  0  0
   -6.8559   25.5932   16.5187 O   0  0  0  0  0  0  0  0  0  0  0  0
   -6.3424   27.2577   16.2777 C   0  0  0  0  0  0  0  0  0  0  0  0
   -7.5222   28.0649   16.7322 C   0  0  0  0  0  0  0  0  0  0  0  0
   -7.3285   29.2014   17.6917 C   0  0  0  0  0  0  0  0  0  0  0  0
   -5.9550   29.5309   18.1968 C   0  0  0  0  0  0  0  0  0  0  0  0
   -5.7614   30.6674   19.1564 F   0  0  0  0  0  0  0  0  0  0  0  0
   -4.7752   28.7237   17.7423 C   0  0  0  0  0  0  0  0  0  0  0  0
   -4.9689   27.5872   16.7827 C   0  0  0  0  0  0  0  0  0  0  0  0
  1  2  2  0  0  0
  2  8  1  0  0  0
  8  9  1  0  0  0
  9 10  1  0  0  0
 10 11  1  0  0  0
 11 12  2  0  0  0
 11 13  2  0  0  0
 11 14  1  0  0  0
 14 15  1  0  0  0
  2  3  1  0  0  0
  3  4  1  0  0  0
  4  5  1  0  0  0
  5  6  1  0  0  0
  6 16  1  0  0  0
 16 17  2  0  0  0
 17 18  1  0  0  0
 18 19  2  0  0  0
 19 22  1  0  0  0
 22 23  1  0  0  0
 23 24  1  0  0  0
 24 25  2  0  0  0
 25 26  1  0  0  0
 26 27  2  0  0  0
 27 28  1  0  0  0
 28 29  2  0  0  0
 19 20  1  0  0  0
 20 21  2  0  0  0
  6 30  1  0  0  0
 30 31  2  0  0  0
 30 32  2  0  0  0
 30 33  1  0  0  0
 33 34  2  0  0  0
 34 35  1  0  0  0
 35 36  2  0  0  0
 36 37  1  0  0  0
 36 38  1  0  0  0
 38 39  2  0  0  0
  6  7  1  0  0  0
 15  8  1  0  0  0
  7  3  1  0  0  0
 21 16  1  0  0  0
 39 33  1  0  0  0
 29 24  1  0  0  0
M  END
> <minimizedAffinity>
-2.25500

$$$$



 29 32  0  0  0  0  0  0  0  0999 V2000
   -8.4556   26.5641   14.9229 C   0  0  0  0  0  0  0  0  0  0  0  0
   -8.1616   27.7989   15.7222 C   0  0  0  0  0  0  0  0  0  0  0  0
   -6.7112   28.1349   15.5394 C   0  0  0  0  0  0  0  0  0  0  0  0
   -6.1088   27.1079   14.6272 C   0  0  0  0  0  0  0  0  0  0  0  0
   -4.7178   26.9312   14.0942 C   0  0  0  0  0  0  0  0  0  0  0  0
   -3.6397   27.9020   14.4753 C   0  0  0  0  0  0  0  0  0  0  0  0
   -2.2488   27.7253   13.9423 C   0  0  0  0  0  0  0  0  0  0  0  0
   -1.9359   26.5778   13.0283 C   0  0  0  0  0  0  0  0  0  0  0  0
   -0.5450   26.4011   12.4954 C   0  0  0  0  0  0  0  0  0  0  0  0
   -0.2322   25.2536   11.5815 C   0  0  0  0  0  0  0  0  0  0  0  0
    1.1588   25.0769   11.0485 O   0  0  0  0  0  0  0  0  0  0  0  0
   -1.3103   24.2828   11.2005 C   0  0  0  0  0  0  0  0  0  0  0  0
   -2.7012   24.4594   11.7334 C   0  0  0  0  0  0  0  0  0  0  0  0
   -3.0140   25.6069   12.6473 C   0  0  0  0  0  0  0  0  0  0  0  0
   -4.0921   24.6361   12.2663 C   0  0  0  0  0  0  0  0  0  0  0  0
   -4.4050   25.7837   13.1803 C   0  0  0  0  0  0  0  0  0  0  0  0
   -5.4831   24.8128   12.7993 C   0  0  0  0  0  0  0  0  0  0  0  0
   -6.8740   24.9895   13.3322 C   0  0  0  0  0  0  0  0  0  0  0  0
   -7.1869   26.1370   14.2462 C   0  0  0  0  0  0  0  0  0  0  0  0
   -8.3619   25.2514   13.9545 C   0  0  0  0  0  0  0  0  0  0  0  0
  -10.8561   26.4458   13.9360 C   0  0  0  0  0  0  0  0  0  0  0  0
   -9.7849   25.8771   14.8187 C   0  0  0  0  0  0  0  0  0  0  0  0
  -10.0431   24.6213   15.5973 C   0  0  0  0  0  0  0  0  0  0  0  0
  -11.4436   24.2599   15.9949 C   0  0  0  0  0  0  0  0  0  0  0  0
  -12.1603   23.1473   15.2888 C   0  0  0  0  0  0  0  0  0  0  0  0
  -13.1262   23.4593   14.1844 C   0  0  0  0  0  0  0  0  0  0  0  0
  -13.8561   24.4062   15.0902 C   0  0  0  0  0  0  0  0  0  0  0  0
  -12.3963   22.5123   13.2786 C   0  0  0  0  0  0  0  0  0  0  0  0
  -14.0921   23.7712   13.0800 O   0  0  0  0  0  0  0  0  0  0  0  0
 22 21  1  0  0  0
 22 23  1  0  0  0
 23 24  1  0  0  0
 24 25  1  0  0  0
 25 26  1  0  0  0
 26 27  1  0  0  0
 26 28  1  0  0  0
 26 29  1  0  0  0
 22  1  1  0  0  0
  1  2  1  0  0  0
  2  3  1  0  0  0
  4  3  1  0  0  0
  4  5  1  0  0  0
  5  6  1  0  0  0
  6  7  1  0  0  0
  7  8  1  0  0  0
  8  9  1  0  0  0
  9 10  1  0  0  0
 10 11  1  0  0  0
 10 12  1  0  0  0
 12 13  1  0  0  0
 13 14  1  0  0  0
 14 15  1  0  0  0
 14 16  1  0  0  0
 16 17  1  0  0  0
 17 18  1  0  0  0
 18 19  1  0  0  0
 19 20  1  0  0  0
 19  1  1  0  0  0
 19  4  1  0  0  0
 16  5  1  0  0  0
 14  8  1  0  0  0
M  END
> <minimizedAffinity>
-9.78352

$$$$



 29 32  0  0  0  0  0  0  0  0999 V2000
   -3.3036   26.8293   12.5765 C   0  0  0  0  0  0  0  0  0  0  0  0
   -2.9590   27.8682   13.6021 C   0  0  0  0  0  0  0  0  0  0  0  0
   -4.1340   28.0186   14.5223 C   0  0  0  0  0  0  0  0  0  0  0  0
   -5.2046   27.0727   14.0655 C   0  0  0  0  0  0  0  0  0  0  0  0
   -6.5807   26.7856   14.5891 C   0  0  0  0  0  0  0  0  0  0  0  0
   -7.0940   27.5207   15.7917 C   0  0  0  0  0  0  0  0  0  0  0  0
   -8.4699   27.2337   16.3153 C   0  0  0  0  0  0  0  0  0  0  0  0
   -9.3328   26.2116   15.6364 C   0  0  0  0  0  0  0  0  0  0  0  0
  -10.7087   25.9245   16.1600 C   0  0  0  0  0  0  0  0  0  0  0  0
  -11.5715   24.9025   15.4810 C   0  0  0  0  0  0  0  0  0  0  0  0
  -12.9475   24.6154   16.0047 O   0  0  0  0  0  0  0  0  0  0  0  0
  -11.0582   24.1674   14.2784 C   0  0  0  0  0  0  0  0  0  0  0  0
   -9.6822   24.4544   13.7548 C   0  0  0  0  0  0  0  0  0  0  0  0
   -8.8195   25.4765   14.4338 C   0  0  0  0  0  0  0  0  0  0  0  0
   -8.3062   24.7415   13.2312 C   0  0  0  0  0  0  0  0  0  0  0  0
   -7.4434   25.7636   13.9101 C   0  0  0  0  0  0  0  0  0  0  0  0
   -6.9302   25.0285   12.7075 C   0  0  0  0  0  0  0  0  0  0  0  0
   -5.5542   25.3155   12.1839 C   0  0  0  0  0  0  0  0  0  0  0  0
   -4.6914   26.3377   12.8628 C   0  0  0  0  0  0  0  0  0  0  0  0
   -4.0459   25.6856   11.6762 C   0  0  0  0  0  0  0  0  0  0  0  0
   -2.7085   26.7753   10.0480 C   0  0  0  0  0  0  0  0  0  0  0  0
   -2.4159   26.3638   11.4605 C   0  0  0  0  0  0  0  0  0  0  0  0
   -1.2357   25.4868   11.7570 C   0  0  0  0  0  0  0  0  0  0  0  0
   -1.2532   24.5859   12.9562 C   0  0  0  0  0  0  0  0  0  0  0  0
   -0.3627   24.8786   14.1272 C   0  0  0  0  0  0  0  0  0  0  0  0
   -0.3955   23.9898   15.3351 C   0  0  0  0  0  0  0  0  0  0  0  0
   -1.8744   23.8087   15.1616 C   0  0  0  0  0  0  0  0  0  0  0  0
    1.0834   24.1709   15.5085 C   0  0  0  0  0  0  0  0  0  0  0  0
   -0.4284   23.1009   16.5429 O   0  0  0  0  0  0  0  0  0  0  0  0
 22 21  1  0  0  0
 22 23  1  0  0  0
 23 24  1  0  0  0
 24 25  1  0  0  0
 25 26  1  0  0  0
 26 27  1  0  0  0
 26 28  1  0  0  0
 26 29  1  0  0  0
 22  1  1  0  0  0
  1  2  1  0  0  0
  2  3  1  0  0  0
  4  3  1  0  0  0
  4  5  1  0  0  0
  5  6  1  0  0  0
  6  7  1  0  0  0
  7  8  1  0  0  0
  8  9  1  0  0  0
  9 10  1  0  0  0
 10 11  1  0  0  0
 10 12  1  0  0  0
 12 13  1  0  0  0
 13 14  1  0  0  0
 14 15  1  0  0  0
 14 16  1  0  0  0
 16 17  1  0  0  0
 17 18  1  0  0  0
 18 19  1  0  0  0
 19 20  1  0  0  0
 19  1  1  0  0  0
 19  4  1  0  0  0
 16  5  1  0  0  0
 14  8  1  0  0  0
M  END
> <minimizedAffinity>
-7.87502

$$$$



 29 32  0  0  0  0  0  0  0  0999 V2000
   -3.4643   26.8776   12.7435 C   0  0  0  0  0  0  0  0  0  0  0  0
   -3.1762   27.9438   13.7586 C   0  0  0  0  0  0  0  0  0  0  0  0
   -4.3824   28.0832   14.6393 C   0  0  0  0  0  0  0  0  0  0  0  0
   -5.4159   27.1034   14.1686 C   0  0  0  0  0  0  0  0  0  0  0  0
   -6.8004   26.7932   14.6554 C   0  0  0  0  0  0  0  0  0  0  0  0
   -7.3679   27.5383   15.8271 C   0  0  0  0  0  0  0  0  0  0  0  0
   -8.7523   27.2283   16.3139 C   0  0  0  0  0  0  0  0  0  0  0  0
   -9.5694   26.1731   15.6291 C   0  0  0  0  0  0  0  0  0  0  0  0
  -10.9539   25.8630   16.1160 C   0  0  0  0  0  0  0  0  0  0  0  0
  -11.7709   24.8078   15.4312 C   0  0  0  0  0  0  0  0  0  0  0  0
  -13.1555   24.4977   15.9180 O   0  0  0  0  0  0  0  0  0  0  0  0
  -11.2035   24.0627   14.2595 C   0  0  0  0  0  0  0  0  0  0  0  0
   -9.8190   24.3728   13.7726 C   0  0  0  0  0  0  0  0  0  0  0  0
   -9.0020   25.4279   14.4574 C   0  0  0  0  0  0  0  0  0  0  0  0
   -8.4346   24.6828   13.2858 C   0  0  0  0  0  0  0  0  0  0  0  0
   -7.6174   25.7381   13.9706 C   0  0  0  0  0  0  0  0  0  0  0  0
   -7.0500   24.9929   12.7989 C   0  0  0  0  0  0  0  0  0  0  0  0
   -5.6655   25.3030   12.3121 C   0  0  0  0  0  0  0  0  0  0  0  0
   -4.8484   26.3582   12.9969 C   0  0  0  0  0  0  0  0  0  0  0  0
   -4.1513   25.6996   11.8436 C   0  0  0  0  0  0  0  0  0  0  0  0
   -1.4393   25.4366   11.9866 C   0  0  0  0  0  0  0  0  0  0  0  0
   -2.5318   26.4126   11.6645 C   0  0  0  0  0  0  0  0  0  0  0  0
   -2.6919   26.9236   10.2634 C   0  0  0  0  0  0  0  0  0  0  0  0
   -1.4868   27.1045    9.3887 C   0  0  0  0  0  0  0  0  0  0  0  0
   -1.2165   26.1369    8.2748 C   0  0  0  0  0  0  0  0  0  0  0  0
   -0.1080   25.1347    8.4044 C   0  0  0  0  0  0  0  0  0  0  0  0
    0.8859   26.2507    8.5339 C   0  0  0  0  0  0  0  0  0  0  0  0
   -1.1018   24.0187    8.2748 C   0  0  0  0  0  0  0  0  0  0  0  0
    1.0006   24.1325    8.5339 O   0  0  0  0  0  0  0  0  0  0  0  0
 22 21  1  0  0  0
 22 23  1  0  0  0
 23 24  1  0  0  0
 24 25  1  0  0  0
 25 26  1  0  0  0
 26 27  1  0  0  0
 26 28  1  0  0  0
 26 29  1  0  0  0
 22  1  1  0  0  0
  1  2  1  0  0  0
  2  3  1  0  0  0
  4  3  1  0  0  0
  4  5  1  0  0  0
  5  6  1  0  0  0
  6  7  1  0  0  0
  7  8  1  0  0  0
  8  9  1  0  0  0
  9 10  1  0  0  0
 10 11  1  0  0  0
 10 12  1  0  0  0
 12 13  1  0  0  0
 13 14  1  0  0  0
 14 15  1  0  0  0
 14 16  1  0  0  0
 16 17  1  0  0  0
 17 18  1  0  0  0
 18 19  1  0  0  0
 19 20  1  0  0  0
 19  1  1  0  0  0
 19  4  1  0  0  0
 16  5  1  0  0  0
 14  8  1  0  0  0
M  END
> <minimizedAffinity>
-7.79850

$$$$



 29 32  0  0  0  0  0  0  0  0999 V2000
   -8.4032   26.8621   15.0629 C   0  0  0  0  0  0  0  0  0  0  0  0
   -8.0457   28.1145   15.8070 C   0  0  0  0  0  0  0  0  0  0  0  0
   -6.5892   28.3903   15.5773 C   0  0  0  0  0  0  0  0  0  0  0  0
   -6.0467   27.3085   14.6913 C   0  0  0  0  0  0  0  0  0  0  0  0
   -4.6766   27.0612   14.1329 C   0  0  0  0  0  0  0  0  0  0  0  0
   -3.5555   28.0058   14.4508 C   0  0  0  0  0  0  0  0  0  0  0  0
   -2.1854   27.7586   13.8924 C   0  0  0  0  0  0  0  0  0  0  0  0
   -1.9364   26.5669   13.0161 C   0  0  0  0  0  0  0  0  0  0  0  0
   -0.5664   26.3197   12.4577 C   0  0  0  0  0  0  0  0  0  0  0  0
   -0.3174   25.1281   11.5814 C   0  0  0  0  0  0  0  0  0  0  0  0
    1.0527   24.8809   11.0230 O   0  0  0  0  0  0  0  0  0  0  0  0
   -1.4385   24.1835   11.2635 C   0  0  0  0  0  0  0  0  0  0  0  0
   -2.8085   24.4307   11.8219 C   0  0  0  0  0  0  0  0  0  0  0  0
   -3.0575   25.6224   12.6982 C   0  0  0  0  0  0  0  0  0  0  0  0
   -4.1786   24.6778   12.3803 C   0  0  0  0  0  0  0  0  0  0  0  0
   -4.4276   25.8696   13.2566 C   0  0  0  0  0  0  0  0  0  0  0  0
   -5.5487   24.9251   12.9387 C   0  0  0  0  0  0  0  0  0  0  0  0
   -6.9188   25.1722   13.4971 C   0  0  0  0  0  0  0  0  0  0  0  0
   -7.1678   26.3639   14.3734 C   0  0  0  0  0  0  0  0  0  0  0  0
   -8.3804   25.5114   14.1438 C   0  0  0  0  0  0  0  0  0  0  0  0
  -10.6246   26.3844   13.8031 C   0  0  0  0  0  0  0  0  0  0  0  0
   -9.7583   26.2206   15.0166 C   0  0  0  0  0  0  0  0  0  0  0  0
  -10.2470   25.4152   16.1838 C   0  0  0  0  0  0  0  0  0  0  0  0
  -10.9810   24.1277   15.9520 C   0  0  0  0  0  0  0  0  0  0  0  0
  -10.3098   22.8186   16.2448 C   0  0  0  0  0  0  0  0  0  0  0  0
   -9.9919   22.4388   17.6607 C   0  0  0  0  0  0  0  0  0  0  0  0
   -8.5270   22.4676   17.3395 C   0  0  0  0  0  0  0  0  0  0  0  0
  -11.4568   22.4101   17.9818 C   0  0  0  0  0  0  0  0  0  0  0  0
   -9.6740   22.0591   19.0766 O   0  0  0  0  0  0  0  0  0  0  0  0
 22 21  1  0  0  0
 22 23  1  0  0  0
 23 24  1  0  0  0
 24 25  1  0  0  0
 25 26  1  0  0  0
 26 27  1  0  0  0
 26 28  1  0  0  0
 26 29  1  0  0  0
 22  1  1  0  0  0
  1  2  1  0  0  0
  2  3  1  0  0  0
  4  3  1  0  0  0
  4  5  1  0  0  0
  5  6  1  0  0  0
  6  7  1  0  0  0
  7  8  1  0  0  0
  8  9  1  0  0  0
  9 10  1  0  0  0
 10 11  1  0  0  0
 10 12  1  0  0  0
 12 13  1  0  0  0
 13 14  1  0  0  0
 14 15  1  0  0  0
 14 16  1  0  0  0
 16 17  1  0  0  0
 17 18  1  0  0  0
 18 19  1  0  0  0
 19 20  1  0  0  0
 19  1  1  0  0  0
 19  4  1  0  0  0
 16  5  1  0  0  0
 14  8  1  0  0  0
M  END
> <minimizedAffinity>
-7.38599

$$$$



 29 32  0  0  0  0  0  0  0  0999 V2000
   -3.5576   26.6608   12.3018 C   0  0  0  0  0  0  0  0  0  0  0  0
   -3.1422   27.7237   13.2754 C   0  0  0  0  0  0  0  0  0  0  0  0
   -4.2621   27.9190   14.2540 C   0  0  0  0  0  0  0  0  0  0  0  0
   -5.3695   26.9769   13.8853 C   0  0  0  0  0  0  0  0  0  0  0  0
   -6.7182   26.7266   14.4923 C   0  0  0  0  0  0  0  0  0  0  0  0
   -7.1536   27.5042   15.6988 C   0  0  0  0  0  0  0  0  0  0  0  0
   -8.5023   27.2539   16.3058 C   0  0  0  0  0  0  0  0  0  0  0  0
   -9.4156   26.2260   15.7063 C   0  0  0  0  0  0  0  0  0  0  0  0
  -10.7642   25.9758   16.3133 C   0  0  0  0  0  0  0  0  0  0  0  0
  -11.6774   24.9479   15.7137 C   0  0  0  0  0  0  0  0  0  0  0  0
  -13.0261   24.6976   16.3207 O   0  0  0  0  0  0  0  0  0  0  0  0
  -11.2420   24.1704   14.5072 C   0  0  0  0  0  0  0  0  0  0  0  0
   -9.8934   24.4206   13.9001 C   0  0  0  0  0  0  0  0  0  0  0  0
   -8.9801   25.4485   14.4997 C   0  0  0  0  0  0  0  0  0  0  0  0
   -8.5447   24.6709   13.2931 C   0  0  0  0  0  0  0  0  0  0  0  0
   -7.6314   25.6988   13.8927 C   0  0  0  0  0  0  0  0  0  0  0  0
   -7.1960   24.9212   12.6861 C   0  0  0  0  0  0  0  0  0  0  0  0
   -5.8474   25.1714   12.0791 C   0  0  0  0  0  0  0  0  0  0  0  0
   -4.9341   26.1993   12.6787 C   0  0  0  0  0  0  0  0  0  0  0  0
   -4.3646   25.5031   11.4783 C   0  0  0  0  0  0  0  0  0  0  0  0
   -2.5918   26.9768    9.9106 C   0  0  0  0  0  0  0  0  0  0  0  0
   -2.7399   26.1494   11.1529 C   0  0  0  0  0  0  0  0  0  0  0  0
   -2.0702   24.8104   11.2465 C   0  0  0  0  0  0  0  0  0  0  0  0
   -0.8864   24.6253   12.1489 C   0  0  0  0  0  0  0  0  0  0  0  0
    0.4609   25.1367   11.7330 C   0  0  0  0  0  0  0  0  0  0  0  0
    0.8815   26.5285   12.1019 C   0  0  0  0  0  0  0  0  0  0  0  0
    1.2385   26.8000   10.6705 C   0  0  0  0  0  0  0  0  0  0  0  0
    0.5244   26.2570   13.5333 C   0  0  0  0  0  0  0  0  0  0  0  0
    1.3020   27.9203   12.4708 O   0  0  0  0  0  0  0  0  0  0  0  0
 22 21  1  0  0  0
 22 23  1  0  0  0
 23 24  1  0  0  0
 24 25  1  0  0  0
 25 26  1  0  0  0
 26 27  1  0  0  0
 26 28  1  0  0  0
 26 29  1  0  0  0
 22  1  1  0  0  0
  1  2  1  0  0  0
  2  3  1  0  0  0
  4  3  1  0  0  0
  4  5  1  0  0  0
  5  6  1  0  0  0
  6  7  1  0  0  0
  7  8  1  0  0  0
  8  9  1  0  0  0
  9 10  1  0  0  0
 10 11  1  0  0  0
 10 12  1  0  0  0
 12 13  1  0  0  0
 13 14  1  0  0  0
 14 15  1  0  0  0
 14 16  1  0  0  0
 16 17  1  0  0  0
 17 18  1  0  0  0
 18 19  1  0  0  0
 19 20  1  0  0  0
 19  1  1  0  0  0
 19  4  1  0  0  0
 16  5  1  0  0  0
 14  8  1  0  0  0
M  END
> <minimizedAffinity>
-7.01739

$$$$
