


 29 32  0  0  0  0  0  0  0  0999 V2000
    1.6528  -44.1632  -14.4440 C   0  0  0  0  0  0  0  0  0  0  0  0
    2.8644  -43.9843  -15.3099 C   0  0  0  0  0  0  0  0  0  0  0  0
    4.0594  -44.8708  -15.1203 C   0  0  0  0  0  0  0  0  0  0  0  0
    4.0428  -45.9363  -14.0647 O   0  0  0  0  0  0  0  0  0  0  0  0
    2.8312  -46.1154  -13.1987 C   0  0  0  0  0  0  0  0  0  0  0  0
    1.6362  -45.2288  -13.3883 C   0  0  0  0  0  0  0  0  0  0  0  0
    0.4246  -45.4078  -12.5223 C   0  0  0  0  0  0  0  0  0  0  0  0
   -0.7704  -44.5213  -12.7119 O   0  0  0  0  0  0  0  0  0  0  0  0
    0.4080  -46.4733  -11.4667 C   0  0  0  0  0  0  0  0  0  0  0  0
    1.6030  -47.3599  -11.2771 C   0  0  0  0  0  0  0  0  0  0  0  0
    2.8146  -47.1809  -12.1431 C   0  0  0  0  0  0  0  0  0  0  0  0
    5.2710  -44.6918  -15.9864 N   0  0  0  0  0  0  0  0  0  0  0  0
   -1.9323  -41.5036  -15.0128 C   0  0  0  0  0  0  0  0  0  0  0  0
   -0.6985  -40.9675  -14.3492 C   0  0  0  0  0  0  0  0  0  0  0  0
    0.4965  -41.8541  -14.1596 C   0  0  0  0  0  0  0  0  0  0  0  0
    0.4578  -43.2767  -14.6336 C   0  0  0  0  0  0  0  0  0  0  0  0
   -0.7761  -43.8128  -15.2971 C   0  0  0  0  0  0  0  0  0  0  0  0
   -1.9711  -42.9263  -15.4867 C   0  0  0  0  0  0  0  0  0  0  0  0
   -3.2049  -43.4623  -16.1503 Br  0  0  0  0  0  0  0  0  0  0  0  0
   -3.8641  -40.0860  -14.0087 C   0  0  0  0  0  0  0  0  0  0  0  0
   -3.1273  -40.6170  -15.2024 O   0  0  0  0  0  0  0  0  0  0  0  0
    1.5864  -48.4255  -10.2214 C   0  0  0  0  0  0  0  0  0  0  0  0
    2.1204  -48.1317   -8.8509 C   0  0  0  0  0  0  0  0  0  0  0  0
    2.1038  -49.1973   -7.7952 C   0  0  0  0  0  0  0  0  0  0  0  0
    1.5532  -50.5566   -8.1102 C   0  0  0  0  0  0  0  0  0  0  0  0
    1.0192  -50.8503   -9.4809 C   0  0  0  0  0  0  0  0  0  0  0  0
    1.0358  -49.7847  -10.5365 C   0  0  0  0  0  0  0  0  0  0  0  0
    2.8810  -42.9187  -16.3656 C   0  0  0  0  0  0  0  0  0  0  0  0
    2.8976  -41.8531  -17.4212 N   0  0  0  0  0  0  0  0  0  0  0  0
 20 21  1  0  0  0
 21 13  1  0  0  0
 13 14  2  0  0  0
 14 15  1  0  0  0
 15 16  2  0  0  0
 16 17  1  0  0  0
 17 18  2  0  0  0
 18 19  1  0  0  0
  1 16  1  0  0  0
  1  2  1  0  0  0
  2  3  2  0  0  0
  3  4  1  0  0  0
  4  5  1  0  0  0
  5  6  2  0  0  0
  6  7  1  0  0  0
  7  8  2  0  0  0
  7  9  1  0  0  0
  9 10  1  0  0  0
 10 11  1  0  0  0
 10 22  1  0  0  0
 22 23  2  0  0  0
 23 24  1  0  0  0
 24 25  2  0  0  0
 25 26  1  0  0  0
 26 27  2  0  0  0
  3 12  1  0  0  0
  2 28  1  0  0  0
 28 29  3  0  0  0
 18 13  1  0  0  0
  6  1  1  0  0  0
 11  5  1  0  0  0
 27 22  1  0  0  0
M  END
> <minimizedAffinity>
-0.82395

$$$$



 32 36  0  0  0  0  0  0  0  0999 V2000
    1.5673  -42.8138  -15.7070 C   0  0  0  0  0  0  0  0  0  0  0  0
    1.4351  -43.8381  -14.6192 C   0  0  0  0  0  0  0  0  0  0  0  0
    0.2139  -44.2173  -13.8350 C   0  0  0  0  0  0  0  0  0  0  0  0
    0.3003  -45.2797  -12.7796 C   0  0  0  0  0  0  0  0  0  0  0  0
    1.6079  -45.9628  -12.5083 C   0  0  0  0  0  0  0  0  0  0  0  0
    2.8290  -45.5837  -13.2925 C   0  0  0  0  0  0  0  0  0  0  0  0
    2.7427  -44.5213  -14.3480 C   0  0  0  0  0  0  0  0  0  0  0  0
    3.9638  -44.1421  -15.1321 O   0  0  0  0  0  0  0  0  0  0  0  0
   -1.1766  -43.6658  -13.9449 N   0  0  0  0  0  0  0  0  0  0  0  0
   -1.6896  -42.5989  -14.8662 C   0  0  0  0  0  0  0  0  0  0  0  0
   -3.1519  -42.3445  -14.6497 C   0  0  0  0  0  0  0  0  0  0  0  0
   -3.8631  -41.3112  -15.4721 C   0  0  0  0  0  0  0  0  0  0  0  0
   -3.1121  -40.5323  -16.5110 C   0  0  0  0  0  0  0  0  0  0  0  0
   -1.6498  -40.7867  -16.7275 C   0  0  0  0  0  0  0  0  0  0  0  0
   -0.9385  -41.8200  -15.9051 C   0  0  0  0  0  0  0  0  0  0  0  0
    0.5109  -41.9157  -16.2792 N   0  0  0  0  0  0  0  0  0  0  0  0
    5.9797  -43.7654  -18.4466 C   0  0  0  0  0  0  0  0  0  0  0  0
    4.9651  -43.1058  -17.5604 C   0  0  0  0  0  0  0  0  0  0  0  0
    5.1241  -41.7834  -16.8703 C   0  0  0  0  0  0  0  0  0  0  0  0
    3.8706  -41.5131  -16.0920 C   0  0  0  0  0  0  0  0  0  0  0  0
    2.9369  -42.6684  -16.3011 C   0  0  0  0  0  0  0  0  0  0  0  0
    3.6134  -43.6526  -17.2086 S   0  0  0  0  0  0  0  0  0  0  0  0
    1.6942  -47.0252  -11.4529 C   0  0  0  0  0  0  0  0  0  0  0  0
    2.4151  -46.7479  -10.1670 C   0  0  0  0  0  0  0  0  0  0  0  0
    2.5015  -47.8102   -9.1115 C   0  0  0  0  0  0  0  0  0  0  0  0
    1.8669  -49.1497   -9.3418 C   0  0  0  0  0  0  0  0  0  0  0  0
    1.1460  -49.4269  -10.6277 C   0  0  0  0  0  0  0  0  0  0  0  0
    1.0596  -48.3646  -11.6832 C   0  0  0  0  0  0  0  0  0  0  0  0
    0.5114  -50.7664  -10.8580 O   0  0  0  0  0  0  0  0  0  0  0  0
   -0.8773  -50.8519  -11.4186 C   0  0  0  0  0  0  0  0  0  0  0  0
    1.9533  -50.2119   -8.2863 O   0  0  0  0  0  0  0  0  0  0  0  0
    0.7003  -50.7664   -7.6758 C   0  0  0  0  0  0  0  0  0  0  0  0
 17 18  1  0  0  0
 18 19  2  0  0  0
 19 20  1  0  0  0
 20 21  2  0  0  0
 21 22  1  0  0  0
  1 21  1  0  0  0
  1  2  1  0  0  0
  2  3  2  0  0  0
  3  4  1  0  0  0
  4  5  1  0  0  0
  5  6  1  0  0  0
  6  7  1  0  0  0
  7  8  2  0  0  0
  5 23  1  0  0  0
 23 24  2  0  0  0
 24 25  1  0  0  0
 25 26  2  0  0  0
 26 27  1  0  0  0
 27 28  2  0  0  0
 27 29  1  0  0  0
 29 30  1  0  0  0
 26 31  1  0  0  0
 31 32  1  0  0  0
  3  9  1  0  0  0
  9 10  1  0  0  0
 10 11  2  0  0  0
 11 12  1  0  0  0
 12 13  2  0  0  0
 13 14  1  0  0  0
 14 15  2  0  0  0
 15 16  1  0  0  0
 22 18  1  0  0  0
 16  1  1  0  0  0
  7  2  1  0  0  0
 28 23  1  0  0  0
 15 10  1  0  0  0
M  END
> <minimizedAffinity>
-1.29664

$$$$



 27 29  0  0  0  0  0  0  0  0999 V2000
    2.5302  -44.4116  -14.9647 C   0  0  0  0  0  0  0  0  0  0  0  0
    3.7739  -44.5800  -15.7863 C   0  0  0  0  0  0  0  0  0  0  0  0
    4.9640  -45.2874  -15.2090 C   0  0  0  0  0  0  0  0  0  0  0  0
    4.9105  -45.8263  -13.8101 C   0  0  0  0  0  0  0  0  0  0  0  0
    3.6669  -45.6579  -12.9886 C   0  0  0  0  0  0  0  0  0  0  0  0
    2.4767  -44.9506  -13.5659 C   0  0  0  0  0  0  0  0  0  0  0  0
    0.0368  -43.7005  -14.7993 C   0  0  0  0  0  0  0  0  0  0  0  0
   -0.0762  -44.4041  -13.4794 O   0  0  0  0  0  0  0  0  0  0  0  0
    1.3400  -43.7043  -15.5419 N   0  0  0  0  0  0  0  0  0  0  0  0
   -4.7238  -40.8712  -17.1083 C   0  0  0  0  0  0  0  0  0  0  0  0
   -3.5336  -41.5786  -16.5310 C   0  0  0  0  0  0  0  0  0  0  0  0
   -3.5051  -43.0773  -16.4774 C   0  0  0  0  0  0  0  0  0  0  0  0
   -2.3150  -43.7846  -15.9001 C   0  0  0  0  0  0  0  0  0  0  0  0
   -1.1533  -42.9932  -15.3765 C   0  0  0  0  0  0  0  0  0  0  0  0
   -1.1818  -41.4945  -15.4302 C   0  0  0  0  0  0  0  0  0  0  0  0
   -2.3720  -40.7872  -16.0075 C   0  0  0  0  0  0  0  0  0  0  0  0
    3.6134  -46.1968  -11.5898 S   0  0  0  0  0  0  0  0  0  0  0  0
    4.9542  -46.8398  -11.7863 O   0  0  0  0  0  0  0  0  0  0  0  0
    2.2725  -45.5538  -11.3934 O   0  0  0  0  0  0  0  0  0  0  0  0
    3.5599  -46.7357  -10.1909 N   0  0  0  0  0  0  0  0  0  0  0  0
    2.5329  -47.7650   -9.8225 C   0  0  0  0  0  0  0  0  0  0  0  0
    1.7022  -48.4117  -10.8912 C   0  0  0  0  0  0  0  0  0  0  0  0
    0.6752  -49.4410  -10.5228 C   0  0  0  0  0  0  0  0  0  0  0  0
    0.4788  -49.8237   -9.0858 C   0  0  0  0  0  0  0  0  0  0  0  0
    1.3094  -49.1771   -8.0172 C   0  0  0  0  0  0  0  0  0  0  0  0
    2.3365  -48.1477   -8.3855 C   0  0  0  0  0  0  0  0  0  0  0  0
   -0.5482  -50.8530   -8.7174 Br  0  0  0  0  0  0  0  0  0  0  0  0
 10 11  1  0  0  0
 11 12  2  0  0  0
 12 13  1  0  0  0
 13 14  2  0  0  0
 14 15  1  0  0  0
 15 16  2  0  0  0
 14  7  1  0  0  0
  7  8  2  0  0  0
  7  9  1  0  0  0
  9  1  1  0  0  0
  1  2  2  0  0  0
  2  3  1  0  0  0
  3  4  2  0  0  0
  4  5  1  0  0  0
  5  6  2  0  0  0
  5 17  1  0  0  0
 17 18  2  0  0  0
 17 19  2  0  0  0
 17 20  1  0  0  0
 20 21  1  0  0  0
 21 22  2  0  0  0
 22 23  1  0  0  0
 23 24  2  0  0  0
 24 25  1  0  0  0
 25 26  2  0  0  0
 24 27  1  0  0  0
 16 11  1  0  0  0
  6  1  1  0  0  0
 26 21  1  0  0  0
M  END
> <minimizedAffinity>
-0.39167

$$$$



 33 36  0  0  0  0  0  0  0  0999 V2000
    2.6774  -45.4853  -12.7885 N   0  0  0  0  0  0  0  0  0  0  0  0
    3.2253  -44.8787  -14.0462 C   0  0  0  0  0  0  0  0  0  0  0  0
    2.5017  -43.7441  -14.7088 O   0  0  0  0  0  0  0  0  0  0  0  0
    4.4970  -45.4067  -14.6413 N   0  0  0  0  0  0  0  0  0  0  0  0
    5.0450  -44.8001  -15.8990 C   0  0  0  0  0  0  0  0  0  0  0  0
    6.4560  -44.2921  -15.9338 C   0  0  0  0  0  0  0  0  0  0  0  0
    7.0039  -43.6855  -17.1915 C   0  0  0  0  0  0  0  0  0  0  0  0
    6.1409  -43.5869  -18.4144 C   0  0  0  0  0  0  0  0  0  0  0  0
    4.7300  -44.0949  -18.3796 C   0  0  0  0  0  0  0  0  0  0  0  0
    4.1820  -44.7014  -17.1219 C   0  0  0  0  0  0  0  0  0  0  0  0
    6.6888  -42.9803  -19.6721 F   0  0  0  0  0  0  0  0  0  0  0  0
    3.4012  -46.6198  -12.1259 C   0  0  0  0  0  0  0  0  0  0  0  0
    0.3901  -50.4833   -8.6608 C   0  0  0  0  0  0  0  0  0  0  0  0
    1.1429  -49.5175   -9.5271 C   0  0  0  0  0  0  0  0  0  0  0  0
    1.9277  -48.4028   -8.9011 C   0  0  0  0  0  0  0  0  0  0  0  0
    2.6804  -47.4370   -9.7674 C   0  0  0  0  0  0  0  0  0  0  0  0
    2.6484  -47.5857  -11.2596 C   0  0  0  0  0  0  0  0  0  0  0  0
    1.8637  -48.7002  -11.8856 C   0  0  0  0  0  0  0  0  0  0  0  0
    1.1109  -49.6661  -11.0194 C   0  0  0  0  0  0  0  0  0  0  0  0
    1.4058  -44.9573  -12.1934 C   0  0  0  0  0  0  0  0  0  0  0  0
    0.2029  -44.7429  -13.0635 C   0  0  0  0  0  0  0  0  0  0  0  0
   -0.0597  -43.3921  -13.6606 C   0  0  0  0  0  0  0  0  0  0  0  0
   -1.2626  -43.1778  -14.5307 C   0  0  0  0  0  0  0  0  0  0  0  0
   -1.5253  -41.8271  -15.1278 C   0  0  0  0  0  0  0  0  0  0  0  0
   -2.7282  -41.6127  -15.9979 C   0  0  0  0  0  0  0  0  0  0  0  0
   -3.6684  -42.7491  -16.2709 C   0  0  0  0  0  0  0  0  0  0  0  0
   -3.4058  -44.0999  -15.6738 C   0  0  0  0  0  0  0  0  0  0  0  0
   -2.2029  -44.3142  -14.8037 C   0  0  0  0  0  0  0  0  0  0  0  0
   -1.9403  -45.6649  -14.2067 N   0  0  0  0  0  0  0  0  0  0  0  0
   -0.7374  -45.8793  -13.3366 C   0  0  0  0  0  0  0  0  0  0  0  0
   -0.4747  -47.2301  -12.7395 O   0  0  0  0  0  0  0  0  0  0  0  0
   -4.8713  -42.5347  -17.1410 C   0  0  0  0  0  0  0  0  0  0  0  0
   -2.9909  -40.2620  -16.5950 C   0  0  0  0  0  0  0  0  0  0  0  0
 13 14  1  0  0  0
 14 15  2  0  0  0
 15 16  1  0  0  0
 16 17  2  0  0  0
 17 18  1  0  0  0
 18 19  2  0  0  0
 17 12  1  0  0  0
 12  1  1  0  0  0
  1 20  1  0  0  0
 20 21  1  0  0  0
 21 22  2  0  0  0
 22 23  1  0  0  0
 23 24  2  0  0  0
 24 25  1  0  0  0
 25 26  2  0  0  0
 26 27  1  0  0  0
 27 28  2  0  0  0
 28 29  1  0  0  0
 29 30  1  0  0  0
 30 31  2  0  0  0
 26 32  1  0  0  0
 25 33  1  0  0  0
  1  2  1  0  0  0
  2  3  2  0  0  0
  2  4  1  0  0  0
  4  5  1  0  0  0
  5  6  2  0  0  0
  6  7  1  0  0  0
  7  8  2  0  0  0
  8  9  1  0  0  0
  9 10  2  0  0  0
  8 11  1  0  0  0
 19 14  1  0  0  0
 30 21  1  0  0  0
 28 23  1  0  0  0
 10  5  1  0  0  0
M  END
> <minimizedAffinity>
-1.44300

$$$$



 31 35  0  0  0  0  0  0  0  0999 V2000
    0.5777  -42.9443  -15.3170 C   0  0  0  0  0  0  0  0  0  0  0  0
   -0.5179  -43.9509  -15.1259 C   0  0  0  0  0  0  0  0  0  0  0  0
   -0.5594  -45.4379  -15.3184 C   0  0  0  0  0  0  0  0  0  0  0  0
   -1.9388  -45.9122  -14.9686 C   0  0  0  0  0  0  0  0  0  0  0  0
   -2.7498  -44.7183  -14.5600 C   0  0  0  0  0  0  0  0  0  0  0  0
   -1.8716  -43.5061  -14.6572 C   0  0  0  0  0  0  0  0  0  0  0  0
   -2.1297  -42.0548  -14.3795 C   0  0  0  0  0  0  0  0  0  0  0  0
   -3.4834  -41.6101  -13.9107 C   0  0  0  0  0  0  0  0  0  0  0  0
   -3.7415  -40.1588  -13.6330 C   0  0  0  0  0  0  0  0  0  0  0  0
   -2.6459  -39.1523  -13.8240 C   0  0  0  0  0  0  0  0  0  0  0  0
   -1.2923  -39.5969  -14.2928 C   0  0  0  0  0  0  0  0  0  0  0  0
   -1.0341  -41.0483  -14.5705 C   0  0  0  0  0  0  0  0  0  0  0  0
    0.3195  -41.4930  -15.0392 N   0  0  0  0  0  0  0  0  0  0  0  0
    4.6388  -44.2784  -16.7231 C   0  0  0  0  0  0  0  0  0  0  0  0
    3.9721  -44.9838  -15.5795 C   0  0  0  0  0  0  0  0  0  0  0  0
    2.6183  -44.5391  -15.1109 C   0  0  0  0  0  0  0  0  0  0  0  0
    1.9315  -43.3890  -15.7857 C   0  0  0  0  0  0  0  0  0  0  0  0
    2.5983  -42.6835  -16.9292 C   0  0  0  0  0  0  0  0  0  0  0  0
    3.9520  -43.1282  -17.3979 C   0  0  0  0  0  0  0  0  0  0  0  0
    6.7332  -43.9174  -18.2175 C   0  0  0  0  0  0  0  0  0  0  0  0
    5.9926  -44.7231  -17.1917 O   0  0  0  0  0  0  0  0  0  0  0  0
   -5.0953  -39.7141  -13.1643 S   0  0  0  0  0  0  0  0  0  0  0  0
   -4.5315  -38.3695  -12.8119 O   0  0  0  0  0  0  0  0  0  0  0  0
   -5.6590  -41.0587  -13.5166 O   0  0  0  0  0  0  0  0  0  0  0  0
   -6.4489  -39.2694  -12.6955 N   0  0  0  0  0  0  0  0  0  0  0  0
   -6.6975  -39.0362  -11.2348 C   0  0  0  0  0  0  0  0  0  0  0  0
   -7.3312  -40.1102  -10.4011 C   0  0  0  0  0  0  0  0  0  0  0  0
   -7.5798  -39.8771   -8.9402 C   0  0  0  0  0  0  0  0  0  0  0  0
   -7.1946  -38.5700   -8.3132 C   0  0  0  0  0  0  0  0  0  0  0  0
   -6.5608  -37.4961   -9.1469 C   0  0  0  0  0  0  0  0  0  0  0  0
   -6.3123  -37.7292  -10.6077 C   0  0  0  0  0  0  0  0  0  0  0  0
 20 21  1  0  0  0
 21 14  1  0  0  0
 14 15  2  0  0  0
 15 16  1  0  0  0
 16 17  2  0  0  0
 17 18  1  0  0  0
 18 19  2  0  0  0
  1 17  1  0  0  0
  1  2  1  0  0  0
  2  3  1  0  0  0
  3  4  1  0  0  0
  4  5  2  0  0  0
  6  5  1  0  0  0
  6  7  1  0  0  0
  7  8  2  0  0  0
  8  9  1  0  0  0
  9 10  2  0  0  0
 10 11  1  0  0  0
 11 12  2  0  0  0
 12 13  1  0  0  0
  9 22  1  0  0  0
 22 23  2  0  0  0
 22 24  2  0  0  0
 22 25  1  0  0  0
 25 26  1  0  0  0
 26 27  1  0  0  0
 27 28  1  0  0  0
 28 29  1  0  0  0
 29 30  1  0  0  0
 30 31  1  0  0  0
 19 14  1  0  0  0
 13  1  1  0  0  0
  6  2  1  0  0  0
 12  7  1  0  0  0
 31 26  1  0  0  0
M  END
> <minimizedAffinity>
12.98589

$$$$



 32 36  0  0  0  0  0  0  0  0999 V2000
    1.5826  -47.4464  -11.3690 C   0  0  0  0  0  0  0  0  0  0  0  0
    0.3517  -46.9675  -12.0800 C   0  0  0  0  0  0  0  0  0  0  0  0
    0.4762  -46.0472  -13.2580 C   0  0  0  0  0  0  0  0  0  0  0  0
    1.8317  -45.6059  -13.7250 C   0  0  0  0  0  0  0  0  0  0  0  0
    3.0626  -46.0848  -13.0139 C   0  0  0  0  0  0  0  0  0  0  0  0
    2.9381  -47.0051  -11.8359 C   0  0  0  0  0  0  0  0  0  0  0  0
    4.4180  -45.6434  -13.4809 C   0  0  0  0  0  0  0  0  0  0  0  0
    5.7997  -45.9484  -12.9828 C   0  0  0  0  0  0  0  0  0  0  0  0
    6.7780  -45.2167  -13.8530 C   0  0  0  0  0  0  0  0  0  0  0  0
    6.0011  -44.4594  -14.8889 C   0  0  0  0  0  0  0  0  0  0  0  0
    4.5425  -44.7232  -14.6589 C   0  0  0  0  0  0  0  0  0  0  0  0
    3.3116  -44.2443  -15.3699 C   0  0  0  0  0  0  0  0  0  0  0  0
    1.9562  -44.6857  -14.9029 N   0  0  0  0  0  0  0  0  0  0  0  0
    3.4361  -43.3241  -16.5479 C   0  0  0  0  0  0  0  0  0  0  0  0
    4.6197  -43.4330  -17.4629 C   0  0  0  0  0  0  0  0  0  0  0  0
    5.6788  -44.4621  -17.1999 C   0  0  0  0  0  0  0  0  0  0  0  0
    6.8624  -44.5709  -18.1150 C   0  0  0  0  0  0  0  0  0  0  0  0
    6.9869  -43.6507  -19.2929 C   0  0  0  0  0  0  0  0  0  0  0  0
    5.9277  -42.6215  -19.5559 C   0  0  0  0  0  0  0  0  0  0  0  0
    4.7441  -42.5127  -18.6409 C   0  0  0  0  0  0  0  0  0  0  0  0
    3.6850  -41.4835  -18.9039 C   0  0  0  0  0  0  0  0  0  0  0  0
    2.5014  -41.3747  -17.9888 C   0  0  0  0  0  0  0  0  0  0  0  0
    2.3769  -42.2949  -16.8109 C   0  0  0  0  0  0  0  0  0  0  0  0
    1.1934  -42.1861  -15.8958 O   0  0  0  0  0  0  0  0  0  0  0  0
    1.3448  -41.5486  -14.5464 C   0  0  0  0  0  0  0  0  0  0  0  0
    1.4582  -48.3666  -10.1910 S   0  0  0  0  0  0  0  0  0  0  0  0
    0.9691  -49.4586  -11.0957 O   0  0  0  0  0  0  0  0  0  0  0  0
    1.9472  -47.2746   -9.2863 O   0  0  0  0  0  0  0  0  0  0  0  0
    1.3337  -49.2868   -9.0130 N   0  0  0  0  0  0  0  0  0  0  0  0
   -0.2516  -50.8515   -7.6755 C   0  0  0  0  0  0  0  0  0  0  0  0
    0.2565  -50.3305   -8.9870 C   0  0  0  0  0  0  0  0  0  0  0  0
   -0.3127  -50.8530  -10.2728 C   0  0  0  0  0  0  0  0  0  0  0  0
 30 31  1  0  0  0
 31 32  1  0  0  0
 31 29  1  0  0  0
 29 26  1  0  0  0
 26 27  2  0  0  0
 26 28  2  0  0  0
 26  1  1  0  0  0
  1  2  2  0  0  0
  2  3  1  0  0  0
  3  4  2  0  0  0
  4  5  1  0  0  0
  5  6  2  0  0  0
  5  7  1  0  0  0
  7  8  1  0  0  0
  8  9  2  0  0  0
  9 10  1  0  0  0
 11 10  1  0  0  0
 11 12  1  0  0  0
 12 13  1  0  0  0
 12 14  1  0  0  0
 14 15  1  0  0  0
 15 16  2  0  0  0
 16 17  1  0  0  0
 17 18  2  0  0  0
 18 19  1  0  0  0
 19 20  2  0  0  0
 20 21  1  0  0  0
 21 22  2  0  0  0
 22 23  1  0  0  0
 23 24  1  0  0  0
 24 25  1  0  0  0
  6  1  1  0  0  0
 13  4  1  0  0  0
 11  7  1  0  0  0
 23 14  2  0  0  0
 20 15  1  0  0  0
M  END
> <minimizedAffinity>
2.55999

$$$$



 33 38  0  0  0  0  0  0  0  0999 V2000
   -3.3497  -40.1097  -13.5534 C   0  0  0  0  0  0  0  0  0  0  0  0
   -2.1146  -39.2617  -13.6278 C   0  0  0  0  0  0  0  0  0  0  0  0
   -0.8092  -39.8728  -14.0430 C   0  0  0  0  0  0  0  0  0  0  0  0
   -0.7387  -41.3319  -14.3838 C   0  0  0  0  0  0  0  0  0  0  0  0
   -1.9739  -42.1799  -14.3094 C   0  0  0  0  0  0  0  0  0  0  0  0
   -3.2793  -41.5688  -13.8941 C   0  0  0  0  0  0  0  0  0  0  0  0
   -1.9034  -43.6390  -14.6502 C   0  0  0  0  0  0  0  0  0  0  0  0
   -2.9463  -44.7170  -14.6681 C   0  0  0  0  0  0  0  0  0  0  0  0
   -2.2854  -45.9942  -15.0944 C   0  0  0  0  0  0  0  0  0  0  0  0
   -0.8340  -45.7057  -15.3399 C   0  0  0  0  0  0  0  0  0  0  0  0
   -0.5980  -44.2500  -15.0654 C   0  0  0  0  0  0  0  0  0  0  0  0
    0.6371  -43.4020  -15.1398 C   0  0  0  0  0  0  0  0  0  0  0  0
    0.5666  -41.9429  -14.7991 N   0  0  0  0  0  0  0  0  0  0  0  0
    1.9425  -44.0130  -15.5551 C   0  0  0  0  0  0  0  0  0  0  0  0
    2.5389  -45.2756  -15.0070 C   0  0  0  0  0  0  0  0  0  0  0  0
    3.8458  -45.5117  -15.7044 N   0  0  0  0  0  0  0  0  0  0  0  0
    4.0570  -44.3951  -16.6835 C   0  0  0  0  0  0  0  0  0  0  0  0
    2.8808  -43.4689  -16.5911 C   0  0  0  0  0  0  0  0  0  0  0  0
    2.8160  -42.2497  -17.4625 C   0  0  0  0  0  0  0  0  0  0  0  0
    3.9275  -41.9566  -18.4262 C   0  0  0  0  0  0  0  0  0  0  0  0
    5.1038  -42.8828  -18.5186 C   0  0  0  0  0  0  0  0  0  0  0  0
    5.1686  -44.1020  -17.6472 C   0  0  0  0  0  0  0  0  0  0  0  0
   -4.6551  -39.4987  -13.1381 S   0  0  0  0  0  0  0  0  0  0  0  0
   -5.3554  -40.7907  -13.4386 O   0  0  0  0  0  0  0  0  0  0  0  0
   -3.9548  -38.2067  -12.8377 O   0  0  0  0  0  0  0  0  0  0  0  0
   -6.8467  -38.2432  -13.7475 C   0  0  0  0  0  0  0  0  0  0  0  0
   -5.9606  -38.8877  -12.7229 N   0  0  0  0  0  0  0  0  0  0  0  0
   -6.3800  -38.9210  -11.2832 C   0  0  0  0  0  0  0  0  0  0  0  0
   -7.1468  -40.0959  -10.7524 C   0  0  0  0  0  0  0  0  0  0  0  0
   -7.5662  -40.1292   -9.3126 C   0  0  0  0  0  0  0  0  0  0  0  0
   -7.2189  -38.9877   -8.4037 C   0  0  0  0  0  0  0  0  0  0  0  0
   -6.4521  -37.8128   -8.9344 C   0  0  0  0  0  0  0  0  0  0  0  0
   -6.0326  -37.7794  -10.3742 C   0  0  0  0  0  0  0  0  0  0  0  0
 26 27  1  0  0  0
 27 28  1  0  0  0
 28 29  2  0  0  0
 29 30  1  0  0  0
 30 31  2  0  0  0
 31 32  1  0  0  0
 32 33  2  0  0  0
 27 23  1  0  0  0
 23 24  2  0  0  0
 23 25  2  0  0  0
 23  1  1  0  0  0
  1  2  2  0  0  0
  2  3  1  0  0  0
  3  4  2  0  0  0
  4  5  1  0  0  0
  5  6  2  0  0  0
  5  7  1  0  0  0
  7  8  1  0  0  0
  8  9  2  0  0  0
  9 10  1  0  0  0
 11 10  1  0  0  0
 11 12  1  0  0  0
 12 13  1  0  0  0
 12 14  1  0  0  0
 14 15  2  0  0  0
 15 16  1  0  0  0
 16 17  1  0  0  0
 17 18  2  0  0  0
 18 19  1  0  0  0
 19 20  2  0  0  0
 20 21  1  0  0  0
 21 22  2  0  0  0
 33 28  1  0  0  0
  6  1  1  0  0  0
 13  4  1  0  0  0
 11  7  1  0  0  0
 18 14  1  0  0  0
 22 17  1  0  0  0
M  END
> <minimizedAffinity>
19.31166

$$$$



 30 34  0  0  0  0  0  0  0  0999 V2000
   -2.5214  -40.8728  -13.9816 C   0  0  0  0  0  0  0  0  0  0  0  0
   -1.2607  -40.0803  -14.1622 C   0  0  0  0  0  0  0  0  0  0  0  0
    0.0692  -40.7741  -14.1519 C   0  0  0  0  0  0  0  0  0  0  0  0
    0.1384  -42.2603  -13.9610 C   0  0  0  0  0  0  0  0  0  0  0  0
   -1.1224  -43.0528  -13.7804 C   0  0  0  0  0  0  0  0  0  0  0  0
   -2.4523  -42.3590  -13.7907 C   0  0  0  0  0  0  0  0  0  0  0  0
   -1.0532  -44.5390  -13.5895 C   0  0  0  0  0  0  0  0  0  0  0  0
   -2.1184  -45.5757  -13.3886 C   0  0  0  0  0  0  0  0  0  0  0  0
   -1.4469  -46.9102  -13.2542 C   0  0  0  0  0  0  0  0  0  0  0  0
    0.0334  -46.6982  -13.3720 C   0  0  0  0  0  0  0  0  0  0  0  0
    0.2767  -45.2327  -13.5792 C   0  0  0  0  0  0  0  0  0  0  0  0
    1.5374  -44.4402  -13.7598 C   0  0  0  0  0  0  0  0  0  0  0  0
    1.4682  -42.9541  -13.9507 N   0  0  0  0  0  0  0  0  0  0  0  0
    2.8673  -45.1340  -13.7495 C   0  0  0  0  0  0  0  0  0  0  0  0
    3.9197  -45.0386  -14.8141 C   0  0  0  0  0  0  0  0  0  0  0  0
    5.0811  -45.8905  -14.3954 C   0  0  0  0  0  0  0  0  0  0  0  0
    4.7465  -46.5124  -13.0720 C   0  0  0  0  0  0  0  0  0  0  0  0
    3.3784  -46.0448  -12.6729 S   0  0  0  0  0  0  0  0  0  0  0  0
   -3.8513  -40.1791  -13.9919 S   0  0  0  0  0  0  0  0  0  0  0  0
   -4.4600  -41.3564  -14.6944 O   0  0  0  0  0  0  0  0  0  0  0  0
   -3.2426  -39.0018  -13.2894 O   0  0  0  0  0  0  0  0  0  0  0  0
   -5.1812  -39.4853  -14.0022 N   0  0  0  0  0  0  0  0  0  0  0  0
   -6.9781  -38.0080  -10.1501 C   0  0  0  0  0  0  0  0  0  0  0  0
   -7.5798  -37.6018  -11.4627 C   0  0  0  0  0  0  0  0  0  0  0  0
   -6.9808  -38.0942  -12.7467 C   0  0  0  0  0  0  0  0  0  0  0  0
   -5.7802  -38.9929  -12.7181 C   0  0  0  0  0  0  0  0  0  0  0  0
   -5.1784  -39.3991  -11.4054 C   0  0  0  0  0  0  0  0  0  0  0  0
   -5.7774  -38.9066  -10.1214 C   0  0  0  0  0  0  0  0  0  0  0  0
   -6.6859  -37.0638   -7.7473 C   0  0  0  0  0  0  0  0  0  0  0  0
   -7.5770  -37.5155   -8.8661 O   0  0  0  0  0  0  0  0  0  0  0  0
 29 30  1  0  0  0
 30 23  1  0  0  0
 23 24  2  0  0  0
 24 25  1  0  0  0
 25 26  2  0  0  0
 26 27  1  0  0  0
 27 28  2  0  0  0
 26 22  1  0  0  0
 22 19  1  0  0  0
 19 20  2  0  0  0
 19 21  2  0  0  0
 19  1  1  0  0  0
  1  2  2  0  0  0
  2  3  1  0  0  0
  3  4  2  0  0  0
  4  5  1  0  0  0
  5  6  2  0  0  0
  5  7  1  0  0  0
  7  8  1  0  0  0
  8  9  2  0  0  0
  9 10  1  0  0  0
 11 10  1  0  0  0
 11 12  1  0  0  0
 12 13  1  0  0  0
 12 14  1  0  0  0
 14 15  2  0  0  0
 15 16  1  0  0  0
 16 17  2  0  0  0
 17 18  1  0  0  0
 28 23  1  0  0  0
  6  1  1  0  0  0
 13  4  1  0  0  0
 11  7  1  0  0  0
 18 14  1  0  0  0
M  END
> <minimizedAffinity>
13.85200

$$$$



 33 37  0  0  0  0  0  0  0  0999 V2000
    1.5083  -42.4938  -15.2641 C   0  0  0  0  0  0  0  0  0  0  0  0
    1.8309  -41.6985  -14.0339 C   0  0  0  0  0  0  0  0  0  0  0  0
    0.7352  -41.0034  -13.2814 C   0  0  0  0  0  0  0  0  0  0  0  0
   -0.6832  -41.1035  -13.7593 C   0  0  0  0  0  0  0  0  0  0  0  0
   -1.0058  -41.8988  -14.9896 C   0  0  0  0  0  0  0  0  0  0  0  0
    0.0900  -42.5939  -15.7419 C   0  0  0  0  0  0  0  0  0  0  0  0
   -2.4241  -41.9988  -15.4674 C   0  0  0  0  0  0  0  0  0  0  0  0
   -3.0414  -42.7053  -16.6377 C   0  0  0  0  0  0  0  0  0  0  0  0
   -4.5187  -42.4467  -16.6086 C   0  0  0  0  0  0  0  0  0  0  0  0
   -4.8144  -41.5805  -15.4203 C   0  0  0  0  0  0  0  0  0  0  0  0
   -3.5198  -41.3037  -14.7149 C   0  0  0  0  0  0  0  0  0  0  0  0
   -3.1972  -40.5084  -13.4847 C   0  0  0  0  0  0  0  0  0  0  0  0
   -1.7789  -40.4083  -13.0069 N   0  0  0  0  0  0  0  0  0  0  0  0
   -4.2929  -39.8132  -12.7323 C   0  0  0  0  0  0  0  0  0  0  0  0
   -5.1699  -38.8185  -13.4332 C   0  0  0  0  0  0  0  0  0  0  0  0
   -6.2656  -38.1233  -12.6807 C   0  0  0  0  0  0  0  0  0  0  0  0
   -6.4844  -38.4229  -11.2273 C   0  0  0  0  0  0  0  0  0  0  0  0
   -5.6073  -39.4177  -10.5264 C   0  0  0  0  0  0  0  0  0  0  0  0
   -4.5117  -40.1128  -11.2788 C   0  0  0  0  0  0  0  0  0  0  0  0
   -5.8260  -39.7172   -9.0730 O   0  0  0  0  0  0  0  0  0  0  0  0
   -7.1384  -40.2788   -8.6122 C   0  0  0  0  0  0  0  0  0  0  0  0
   -7.5800  -37.7278  -10.4749 O   0  0  0  0  0  0  0  0  0  0  0  0
   -7.2655  -36.9781   -9.2142 C   0  0  0  0  0  0  0  0  0  0  0  0
    3.6651  -42.3858  -16.7086 C   0  0  0  0  0  0  0  0  0  0  0  0
    3.6305  -40.8874  -16.6483 O   0  0  0  0  0  0  0  0  0  0  0  0
    2.6040  -43.1890  -16.0165 N   0  0  0  0  0  0  0  0  0  0  0  0
    4.4845  -45.1666  -15.9365 C   0  0  0  0  0  0  0  0  0  0  0  0
    5.1705  -44.4714  -17.0750 C   0  0  0  0  0  0  0  0  0  0  0  0
    6.2662  -45.1666  -17.8274 C   0  0  0  0  0  0  0  0  0  0  0  0
    6.9522  -44.4714  -18.9658 C   0  0  0  0  0  0  0  0  0  0  0  0
    6.5426  -43.0811  -19.3519 C   0  0  0  0  0  0  0  0  0  0  0  0
    5.4468  -42.3859  -18.5994 C   0  0  0  0  0  0  0  0  0  0  0  0
    4.7608  -43.0810  -17.4610 C   0  0  0  0  0  0  0  0  0  0  0  0
 27 28  1  0  0  0
 28 29  2  0  0  0
 29 30  1  0  0  0
 30 31  2  0  0  0
 31 32  1  0  0  0
 32 33  2  0  0  0
 33 24  1  0  0  0
 24 25  2  0  0  0
 24 26  1  0  0  0
 26  1  1  0  0  0
  1  2  2  0  0  0
  2  3  1  0  0  0
  3  4  2  0  0  0
  4  5  1  0  0  0
  5  6  2  0  0  0
  5  7  1  0  0  0
  7  8  1  0  0  0
  8  9  2  0  0  0
  9 10  1  0  0  0
 11 10  1  0  0  0
 11 12  1  0  0  0
 12 13  1  0  0  0
 12 14  1  0  0  0
 14 15  2  0  0  0
 15 16  1  0  0  0
 16 17  2  0  0  0
 17 18  1  0  0  0
 18 19  2  0  0  0
 18 20  1  0  0  0
 20 21  1  0  0  0
 17 22  1  0  0  0
 22 23  1  0  0  0
 33 28  1  0  0  0
  6  1  1  0  0  0
 13  4  1  0  0  0
 11  7  1  0  0  0
 19 14  1  0  0  0
M  END
> <minimizedAffinity>
20.01255

$$$$



 28 30  0  0  0  0  0  0  0  0999 V2000
    0.1002  -44.6377  -14.9050 C   0  0  0  0  0  0  0  0  0  0  0  0
   -0.3926  -44.6365  -13.4883 C   0  0  0  0  0  0  0  0  0  0  0  0
   -1.6593  -45.3577  -13.1342 C   0  0  0  0  0  0  0  0  0  0  0  0
   -2.4331  -46.0801  -14.1969 C   0  0  0  0  0  0  0  0  0  0  0  0
   -1.9404  -46.0813  -15.6136 C   0  0  0  0  0  0  0  0  0  0  0  0
   -0.6737  -45.3600  -15.9677 C   0  0  0  0  0  0  0  0  0  0  0  0
    2.1641  -44.3441  -16.4554 N   0  0  0  0  0  0  0  0  0  0  0  0
    1.3669  -43.9164  -15.2591 C   0  0  0  0  0  0  0  0  0  0  0  0
    1.8363  -42.7675  -14.4167 O   0  0  0  0  0  0  0  0  0  0  0  0
    7.0590  -44.4368  -18.1966 C   0  0  0  0  0  0  0  0  0  0  0  0
    5.8783  -43.6693  -17.6801 C   0  0  0  0  0  0  0  0  0  0  0  0
    5.9642  -42.1806  -17.5177 C   0  0  0  0  0  0  0  0  0  0  0  0
    4.7835  -41.4131  -17.0012 C   0  0  0  0  0  0  0  0  0  0  0  0
    3.5168  -42.1342  -16.6471 C   0  0  0  0  0  0  0  0  0  0  0  0
    3.4309  -43.6229  -16.8095 C   0  0  0  0  0  0  0  0  0  0  0  0
    4.6116  -44.3904  -17.3260 C   0  0  0  0  0  0  0  0  0  0  0  0
   -2.7142  -46.8036  -16.6763 N   0  0  0  0  0  0  0  0  0  0  0  0
   -3.2871  -46.0427  -17.8351 C   0  0  0  0  0  0  0  0  0  0  0  0
   -3.0861  -44.5593  -17.9312 O   0  0  0  0  0  0  0  0  0  0  0  0
   -4.0609  -46.7651  -18.8978 C   0  0  0  0  0  0  0  0  0  0  0  0
   -3.7409  -46.5358  -20.3452 C   0  0  0  0  0  0  0  0  0  0  0  0
   -4.5148  -47.2582  -21.4079 C   0  0  0  0  0  0  0  0  0  0  0  0
   -5.6087  -48.2098  -21.0231 C   0  0  0  0  0  0  0  0  0  0  0  0
   -5.9286  -48.4390  -19.5757 C   0  0  0  0  0  0  0  0  0  0  0  0
   -5.1548  -47.7166  -18.5130 C   0  0  0  0  0  0  0  0  0  0  0  0
   -7.0224  -49.3905  -19.1910 Br  0  0  0  0  0  0  0  0  0  0  0  0
   -6.3825  -48.9322  -22.0858 O   0  0  0  0  0  0  0  0  0  0  0  0
   -7.2452  -48.1610  -23.0404 C   0  0  0  0  0  0  0  0  0  0  0  0
 10 11  1  0  0  0
 11 12  2  0  0  0
 12 13  1  0  0  0
 13 14  2  0  0  0
 14 15  1  0  0  0
 15 16  2  0  0  0
 15  7  1  0  0  0
  7  8  1  0  0  0
  8  9  2  0  0  0
  8  1  1  0  0  0
  1  2  2  0  0  0
  2  3  1  0  0  0
  3  4  2  0  0  0
  4  5  1  0  0  0
  5  6  2  0  0  0
  5 17  1  0  0  0
 17 18  1  0  0  0
 18 19  2  0  0  0
 18 20  1  0  0  0
 20 21  2  0  0  0
 21 22  1  0  0  0
 22 23  2  0  0  0
 23 24  1  0  0  0
 24 25  2  0  0  0
 24 26  1  0  0  0
 23 27  1  0  0  0
 27 28  1  0  0  0
 16 11  1  0  0  0
  6  1  1  0  0  0
 25 20  1  0  0  0
M  END
> <minimizedAffinity>
1.51731

$$$$



 30 34  0  0  0  0  0  0  0  0999 V2000
   -1.8018  -42.8083  -14.2324 N   0  0  0  0  0  0  0  0  0  0  0  0
   -2.2932  -43.8810  -15.1586 C   0  0  0  0  0  0  0  0  0  0  0  0
   -3.5192  -43.6491  -15.9914 C   0  0  0  0  0  0  0  0  0  0  0  0
   -4.0107  -44.7217  -16.9176 C   0  0  0  0  0  0  0  0  0  0  0  0
   -3.2763  -46.0263  -17.0110 C   0  0  0  0  0  0  0  0  0  0  0  0
   -2.0504  -46.2582  -16.1784 C   0  0  0  0  0  0  0  0  0  0  0  0
   -1.5589  -45.1856  -15.2521 C   0  0  0  0  0  0  0  0  0  0  0  0
   -0.3330  -45.4175  -14.4194 C   0  0  0  0  0  0  0  0  0  0  0  0
    1.0868  -45.2740  -14.8816 N   0  0  0  0  0  0  0  0  0  0  0  0
    1.9856  -45.6015  -13.7262 C   0  0  0  0  0  0  0  0  0  0  0  0
    3.4795  -45.6295  -13.5931 C   0  0  0  0  0  0  0  0  0  0  0  0
    4.1090  -46.0032  -12.2840 C   0  0  0  0  0  0  0  0  0  0  0  0
    3.2446  -46.3491  -11.1078 C   0  0  0  0  0  0  0  0  0  0  0  0
    1.7508  -46.3211  -11.2409 C   0  0  0  0  0  0  0  0  0  0  0  0
    1.1213  -45.9473  -12.5500 C   0  0  0  0  0  0  0  0  0  0  0  0
   -0.3117  -45.8336  -12.9786 S   0  0  0  0  0  0  0  0  0  0  0  0
   -1.0445  -41.6346  -14.7790 C   0  0  0  0  0  0  0  0  0  0  0  0
   -1.4619  -40.2394  -14.4196 S   0  0  0  0  0  0  0  0  0  0  0  0
    1.4290  -42.3517  -15.1217 C   0  0  0  0  0  0  0  0  0  0  0  0
    1.5530  -42.6262  -13.6522 O   0  0  0  0  0  0  0  0  0  0  0  0
    0.1303  -41.8559  -15.6850 N   0  0  0  0  0  0  0  0  0  0  0  0
    6.2670  -42.6782  -19.3750 C   0  0  0  0  0  0  0  0  0  0  0  0
    6.6255  -43.9162  -18.6077 C   0  0  0  0  0  0  0  0  0  0  0  0
    5.7874  -44.3435  -17.4394 C   0  0  0  0  0  0  0  0  0  0  0  0
    4.5908  -43.5328  -17.0384 C   0  0  0  0  0  0  0  0  0  0  0  0
    4.2323  -42.2948  -17.8057 C   0  0  0  0  0  0  0  0  0  0  0  0
    5.0705  -41.8675  -18.9740 C   0  0  0  0  0  0  0  0  0  0  0  0
    3.0043  -41.7017  -17.1811 C   0  0  0  0  0  0  0  0  0  0  0  0
    2.6038  -42.5731  -16.0278 C   0  0  0  0  0  0  0  0  0  0  0  0
    3.5843  -43.7048  -15.9396 O   0  0  0  0  0  0  0  0  0  0  0  0
 22 23  2  0  0  0
 23 24  1  0  0  0
 24 25  2  0  0  0
 25 26  1  0  0  0
 26 27  2  0  0  0
 26 28  1  0  0  0
 28 29  2  0  0  0
 29 30  1  0  0  0
 29 19  1  0  0  0
 19 20  2  0  0  0
 19 21  1  0  0  0
 21 17  1  0  0  0
 17 18  2  0  0  0
 17  1  1  0  0  0
  1  2  1  0  0  0
  2  3  2  0  0  0
  3  4  1  0  0  0
  4  5  2  0  0  0
  5  6  1  0  0  0
  6  7  2  0  0  0
  7  8  1  0  0  0
  8  9  2  0  0  0
  9 10  1  0  0  0
 10 11  2  0  0  0
 11 12  1  0  0  0
 12 13  2  0  0  0
 13 14  1  0  0  0
 14 15  2  0  0  0
 15 16  1  0  0  0
 27 22  1  0  0  0
 30 25  1  0  0  0
  7  2  1  0  0  0
 16  8  1  0  0  0
 15 10  1  0  0  0
M  END
> <minimizedAffinity>
-8.51301

$$$$



 32 35  0  0  0  0  0  0  0  0999 V2000
    4.5830  -46.1049  -13.6997 C   0  0  0  0  0  0  0  0  0  0  0  0
    5.1386  -46.4929  -12.3615 N   0  0  0  0  0  0  0  0  0  0  0  0
    4.0002  -46.5528  -11.3866 C   0  0  0  0  0  0  0  0  0  0  0  0
    4.1029  -46.9023   -9.9315 O   0  0  0  0  0  0  0  0  0  0  0  0
    2.7409  -46.2018  -12.1223 C   0  0  0  0  0  0  0  0  0  0  0  0
    1.3635  -46.1387  -11.5320 C   0  0  0  0  0  0  0  0  0  0  0  0
    3.1011  -45.9250  -13.5518 S   0  0  0  0  0  0  0  0  0  0  0  0
    0.1935  -45.7711  -12.3958 C   0  0  0  0  0  0  0  0  0  0  0  0
   -0.8786  -46.7057  -12.8726 C   0  0  0  0  0  0  0  0  0  0  0  0
   -1.8444  -45.9167  -13.7059 C   0  0  0  0  0  0  0  0  0  0  0  0
   -1.3694  -44.4943  -13.7441 N   0  0  0  0  0  0  0  0  0  0  0  0
   -0.1098  -44.4044  -12.9344 C   0  0  0  0  0  0  0  0  0  0  0  0
    0.7035  -43.1654  -12.7038 C   0  0  0  0  0  0  0  0  0  0  0  0
   -3.0701  -46.4553  -14.3822 C   0  0  0  0  0  0  0  0  0  0  0  0
   -2.0367  -43.3610  -14.4654 C   0  0  0  0  0  0  0  0  0  0  0  0
   -2.6299  -43.4194  -15.8419 C   0  0  0  0  0  0  0  0  0  0  0  0
   -3.1878  -42.0648  -16.1639 C   0  0  0  0  0  0  0  0  0  0  0  0
   -2.9394  -41.1691  -14.9865 C   0  0  0  0  0  0  0  0  0  0  0  0
   -2.2280  -41.9704  -13.9368 S   0  0  0  0  0  0  0  0  0  0  0  0
   -3.3333  -39.7259  -14.8779 C   0  0  0  0  0  0  0  0  0  0  0  0
   -3.8736  -41.6742  -17.4395 C   0  0  0  0  0  0  0  0  0  0  0  0
   -2.6599  -44.6212  -16.7387 C   0  0  0  0  0  0  0  0  0  0  0  0
   -2.6899  -45.8232  -17.6357 N   0  0  0  0  0  0  0  0  0  0  0  0
    5.3708  -45.9280  -14.9638 N   0  0  0  0  0  0  0  0  0  0  0  0
    4.3109  -42.6264  -17.8320 C   0  0  0  0  0  0  0  0  0  0  0  0
    5.7467  -43.0086  -17.6258 C   0  0  0  0  0  0  0  0  0  0  0  0
    6.0999  -44.1092  -16.6698 C   0  0  0  0  0  0  0  0  0  0  0  0
    5.0175  -44.8274  -15.9199 C   0  0  0  0  0  0  0  0  0  0  0  0
    3.5818  -44.4452  -16.1261 C   0  0  0  0  0  0  0  0  0  0  0  0
    3.2285  -43.3447  -17.0821 C   0  0  0  0  0  0  0  0  0  0  0  0
    4.8104  -41.2805  -19.9974 C   0  0  0  0  0  0  0  0  0  0  0  0
    3.9577  -41.5259  -18.7881 C   0  0  0  0  0  0  0  0  0  0  0  0
 31 32  1  0  0  0
 32 25  1  0  0  0
 25 26  2  0  0  0
 26 27  1  0  0  0
 27 28  2  0  0  0
 28 29  1  0  0  0
 29 30  2  0  0  0
 28 24  1  0  0  0
  1 24  1  0  0  0
  1  2  1  0  0  0
  2  3  1  0  0  0
  3  4  2  0  0  0
  3  5  1  0  0  0
  5  6  2  0  0  0
  6  8  1  0  0  0
  8  9  1  0  0  0
  9 10  2  0  0  0
 10 11  1  0  0  0
 11 12  1  0  0  0
 12 13  1  0  0  0
 11 15  1  0  0  0
 15 16  2  0  0  0
 16 17  1  0  0  0
 17 18  2  0  0  0
 18 19  1  0  0  0
 18 20  1  0  0  0
 17 21  1  0  0  0
 16 22  1  0  0  0
 22 23  3  0  0  0
 10 14  1  0  0  0
  5  7  1  0  0  0
 30 25  1  0  0  0
  7  1  1  0  0  0
 12  8  2  0  0  0
 19 15  1  0  0  0
M  END
> <minimizedAffinity>
2.55354

$$$$



 29 32  0  0  0  0  0  0  0  0999 V2000
    2.2073  -46.7985  -10.7247 C   0  0  0  0  0  0  0  0  0  0  0  0
    2.8202  -46.2476  -11.9780 C   0  0  0  0  0  0  0  0  0  0  0  0
    3.8229  -46.0001  -13.0658 C   0  0  0  0  0  0  0  0  0  0  0  0
    3.4905  -45.0703  -14.1950 C   0  0  0  0  0  0  0  0  0  0  0  0
    2.1553  -44.3880  -14.2363 C   0  0  0  0  0  0  0  0  0  0  0  0
    1.6254  -43.4311  -15.2628 C   0  0  0  0  0  0  0  0  0  0  0  0
    2.2998  -42.9203  -16.5014 N   0  0  0  0  0  0  0  0  0  0  0  0
    3.6707  -43.2401  -17.0196 C   0  0  0  0  0  0  0  0  0  0  0  0
    3.9567  -42.5113  -18.2990 C   0  0  0  0  0  0  0  0  0  0  0  0
    5.2779  -42.6922  -18.9858 C   0  0  0  0  0  0  0  0  0  0  0  0
    6.3129  -43.6019  -18.3933 C   0  0  0  0  0  0  0  0  0  0  0  0
    6.0269  -44.3307  -17.1139 C   0  0  0  0  0  0  0  0  0  0  0  0
    4.7057  -44.1498  -16.4270 C   0  0  0  0  0  0  0  0  0  0  0  0
    4.6255  -44.9643  -15.1699 N   0  0  0  0  0  0  0  0  0  0  0  0
    1.1526  -44.6354  -13.1485 C   0  0  0  0  0  0  0  0  0  0  0  0
    0.4232  -44.3196  -13.0873 O   0  0  0  0  0  0  0  0  0  0  0  0
    1.4851  -45.5653  -12.0194 C   0  0  0  0  0  0  0  0  0  0  0  0
    3.9426  -47.1213  -11.5015 C   0  0  0  0  0  0  0  0  0  0  0  0
    0.2376  -42.9171  -15.0182 C   0  0  0  0  0  0  0  0  0  0  0  0
   -0.9490  -43.7603  -15.3801 C   0  0  0  0  0  0  0  0  0  0  0  0
   -2.3369  -43.2463  -15.1356 C   0  0  0  0  0  0  0  0  0  0  0  0
   -2.5380  -41.8891  -14.5291 C   0  0  0  0  0  0  0  0  0  0  0  0
   -1.3514  -41.0460  -14.1673 C   0  0  0  0  0  0  0  0  0  0  0  0
    0.0365  -41.5599  -14.4118 C   0  0  0  0  0  0  0  0  0  0  0  0
    0.6030  -41.0452  -14.1891 Br  0  0  0  0  0  0  0  0  0  0  0  0
   -3.9258  -41.3752  -14.2846 O   0  0  0  0  0  0  0  0  0  0  0  0
   -4.1275  -40.0048  -13.7087 C   0  0  0  0  0  0  0  0  0  0  0  0
   -0.7479  -45.1174  -15.9865 O   0  0  0  0  0  0  0  0  0  0  0  0
   -1.9346  -45.9542  -16.3628 C   0  0  0  0  0  0  0  0  0  0  0  0
  1  2  1  0  0  0
  2  3  1  0  0  0
  3  4  1  0  0  0
  4  5  2  0  0  0
  5  6  1  0  0  0
  6  7  1  0  0  0
  7  8  1  0  0  0
  8  9  2  0  0  0
  9 10  1  0  0  0
 10 11  2  0  0  0
 11 12  1  0  0  0
 12 13  2  0  0  0
 13 14  1  0  0  0
  6 19  1  0  0  0
 19 20  2  0  0  0
 20 21  1  0  0  0
 21 22  2  0  0  0
 22 23  1  0  0  0
 23 24  2  0  0  0
 24 25  1  0  0  0
 22 26  1  0  0  0
 26 27  1  0  0  0
 20 28  1  0  0  0
 28 29  1  0  0  0
  5 15  1  0  0  0
 15 16  2  0  0  0
 15 17  1  0  0  0
  2 18  1  0  0  0
 17  2  1  0  0  0
 14  4  1  0  0  0
 13  8  1  0  0  0
 24 19  1  0  0  0
M  END
> <minimizedAffinity>
-5.65959

$$$$



 29 32  0  0  0  0  0  0  0  0999 V2000
    1.5391  -46.8526  -11.9830 N   0  0  0  0  0  0  0  0  0  0  0  0
    1.5418  -47.7568  -10.7862 C   0  0  0  0  0  0  0  0  0  0  0  0
    2.5916  -45.7933  -12.1250 C   0  0  0  0  0  0  0  0  0  0  0  0
    3.6468  -45.6382  -11.0703 O   0  0  0  0  0  0  0  0  0  0  0  0
    2.5890  -44.8891  -13.3219 C   0  0  0  0  0  0  0  0  0  0  0  0
    1.4804  -43.8962  -13.5093 C   0  0  0  0  0  0  0  0  0  0  0  0
    1.4778  -42.9920  -14.7061 C   0  0  0  0  0  0  0  0  0  0  0  0
    2.5837  -43.0807  -15.7156 C   0  0  0  0  0  0  0  0  0  0  0  0
    3.6923  -44.0736  -15.5282 C   0  0  0  0  0  0  0  0  0  0  0  0
    3.6950  -44.9778  -14.3314 C   0  0  0  0  0  0  0  0  0  0  0  0
    4.6408  -43.9327  -16.6817 C   0  0  0  0  0  0  0  0  0  0  0  0
    4.1183  -42.8526  -17.5820 C   0  0  0  0  0  0  0  0  0  0  0  0
    2.8470  -42.3261  -16.9849 N   0  0  0  0  0  0  0  0  0  0  0  0
    4.8677  -42.4882  -18.8292 C   0  0  0  0  0  0  0  0  0  0  0  0
    6.1395  -43.2038  -19.1761 C   0  0  0  0  0  0  0  0  0  0  0  0
    6.6620  -44.2838  -18.2758 C   0  0  0  0  0  0  0  0  0  0  0  0
    5.9126  -44.6483  -17.0286 C   0  0  0  0  0  0  0  0  0  0  0  0
    0.4840  -47.0077  -13.0378 C   0  0  0  0  0  0  0  0  0  0  0  0
   -0.7327  -45.6186  -14.8654 N   0  0  0  0  0  0  0  0  0  0  0  0
   -0.3654  -45.8343  -13.4271 C   0  0  0  0  0  0  0  0  0  0  0  0
   -0.8475  -44.8766  -12.3782 O   0  0  0  0  0  0  0  0  0  0  0  0
   -2.7446  -45.8905  -17.0742 C   0  0  0  0  0  0  0  0  0  0  0  0
   -2.5881  -44.5811  -16.3592 C   0  0  0  0  0  0  0  0  0  0  0  0
   -3.4375  -43.4078  -16.7486 C   0  0  0  0  0  0  0  0  0  0  0  0
   -3.2810  -42.0985  -16.0336 C   0  0  0  0  0  0  0  0  0  0  0  0
   -2.2751  -41.9626  -14.9293 C   0  0  0  0  0  0  0  0  0  0  0  0
   -1.4257  -43.1359  -14.5398 C   0  0  0  0  0  0  0  0  0  0  0  0
   -1.5821  -44.4452  -15.2548 C   0  0  0  0  0  0  0  0  0  0  0  0
   -4.1304  -40.9251  -16.4230 Br  0  0  0  0  0  0  0  0  0  0  0  0
 22 23  1  0  0  0
 23 24  2  0  0  0
 24 25  1  0  0  0
 25 26  2  0  0  0
 26 27  1  0  0  0
 27 28  2  0  0  0
 28 19  1  0  0  0
 19 20  1  0  0  0
 20 21  2  0  0  0
 20 18  1  0  0  0
 18  1  1  0  0  0
  1  2  1  0  0  0
  1  3  1  0  0  0
  3  4  2  0  0  0
  3  5  1  0  0  0
  5  6  2  0  0  0
  6  7  1  0  0  0
  7  8  2  0  0  0
  8  9  1  0  0  0
  9 10  2  0  0  0
  9 11  1  0  0  0
 11 12  2  0  0  0
 12 13  1  0  0  0
 12 14  1  0  0  0
 14 15  1  0  0  0
 15 16  1  0  0  0
 16 17  1  0  0  0
 25 29  1  0  0  0
 28 23  1  0  0  0
 10  5  1  0  0  0
 13  8  1  0  0  0
 17 11  1  0  0  0
M  END
> <minimizedAffinity>
-7.00046

$$$$



 32 35  0  0  0  0  0  0  0  0999 V2000
   -1.3215  -45.3692  -15.1991 N   0  0  0  0  0  0  0  0  0  0  0  0
   -1.6950  -46.1525  -13.9756 C   0  0  0  0  0  0  0  0  0  0  0  0
   -0.6367  -46.5597  -12.9937 C   0  0  0  0  0  0  0  0  0  0  0  0
    0.7951  -46.1835  -13.2352 C   0  0  0  0  0  0  0  0  0  0  0  0
    1.1687  -45.4002  -14.4587 C   0  0  0  0  0  0  0  0  0  0  0  0
    0.1104  -44.9930  -15.4406 C   0  0  0  0  0  0  0  0  0  0  0  0
    2.6005  -45.0240  -14.7002 C   0  0  0  0  0  0  0  0  0  0  0  0
    3.6588  -45.4311  -13.7183 C   0  0  0  0  0  0  0  0  0  0  0  0
    3.2853  -46.2145  -12.4948 C   0  0  0  0  0  0  0  0  0  0  0  0
    1.8534  -46.5907  -12.2533 C   0  0  0  0  0  0  0  0  0  0  0  0
    4.3436  -46.6217  -11.5129 N   0  0  0  0  0  0  0  0  0  0  0  0
    2.9740  -44.2407  -15.9236 C   0  0  0  0  0  0  0  0  0  0  0  0
    3.5490  -44.9434  -17.1176 C   0  0  0  0  0  0  0  0  0  0  0  0
    3.9225  -44.1600  -18.3411 C   0  0  0  0  0  0  0  0  0  0  0  0
    3.7211  -42.6739  -18.3705 C   0  0  0  0  0  0  0  0  0  0  0  0
    3.1462  -41.9712  -17.1765 C   0  0  0  0  0  0  0  0  0  0  0  0
    2.7727  -42.7545  -15.9531 C   0  0  0  0  0  0  0  0  0  0  0  0
    4.0947  -41.8905  -19.5940 Cl  0  0  0  0  0  0  0  0  0  0  0  0
    1.4799  -47.3740  -11.0298 C   0  0  0  0  0  0  0  0  0  0  0  0
    1.1064  -48.1574   -9.8063 N   0  0  0  0  0  0  0  0  0  0  0  0
    5.0098  -45.5848  -13.0848 C   0  0  0  0  0  0  0  0  0  0  0  0
    6.3607  -45.7384  -12.4514 N   0  0  0  0  0  0  0  0  0  0  0  0
    4.5016  -44.7012  -14.7217 C   0  0  0  0  0  0  0  0  0  0  0  0
    5.3445  -43.9713  -15.7250 N   0  0  0  0  0  0  0  0  0  0  0  0
   -2.3798  -44.9620  -16.1811 C   0  0  0  0  0  0  0  0  0  0  0  0
   -3.3233  -43.8449  -15.8467 C   0  0  0  0  0  0  0  0  0  0  0  0
   -1.7614  -40.0688  -13.9621 C   0  0  0  0  0  0  0  0  0  0  0  0
   -3.2377  -40.2603  -14.1458 C   0  0  0  0  0  0  0  0  0  0  0  0
   -3.7584  -41.5189  -14.7740 C   0  0  0  0  0  0  0  0  0  0  0  0
   -2.8026  -42.5861  -15.2185 C   0  0  0  0  0  0  0  0  0  0  0  0
   -1.3263  -42.3947  -15.0347 C   0  0  0  0  0  0  0  0  0  0  0  0
   -0.8057  -41.1361  -14.4066 C   0  0  0  0  0  0  0  0  0  0  0  0
 27 28  2  0  0  0
 28 29  1  0  0  0
 29 30  2  0  0  0
 30 31  1  0  0  0
 31 32  2  0  0  0
 30 26  1  0  0  0
 26 25  1  0  0  0
 25  1  1  0  0  0
  1  2  1  0  0  0
  2  3  1  0  0  0
  3  4  2  0  0  0
  4  5  1  0  0  0
  5  6  1  0  0  0
  5  7  1  0  0  0
  7  8  1  0  0  0
  8  9  1  0  0  0
  9 10  2  0  0  0
 10 19  1  0  0  0
 19 20  3  0  0  0
  9 11  1  0  0  0
  8 21  1  0  0  0
 21 22  3  0  0  0
  8 23  1  0  0  0
 23 24  3  0  0  0
  7 12  1  0  0  0
 12 13  2  0  0  0
 13 14  1  0  0  0
 14 15  2  0  0  0
 15 16  1  0  0  0
 16 17  2  0  0  0
 15 18  1  0  0  0
 32 27  1  0  0  0
  6  1  1  0  0  0
 10  4  1  0  0  0
 17 12  1  0  0  0
M  END
> <minimizedAffinity>
-0.22991

$$$$



 30 33  0  0  0  0  0  0  0  0999 V2000
    3.4801  -45.3914  -13.8623 C   0  0  0  0  0  0  0  0  0  0  0  0
    4.9638  -45.5869  -13.9652 C   0  0  0  0  0  0  0  0  0  0  0  0
    5.7356  -44.9092  -15.0583 N   0  0  0  0  0  0  0  0  0  0  0  0
    5.0237  -44.0358  -16.0486 C   0  0  0  0  0  0  0  0  0  0  0  0
    3.5401  -43.8403  -15.9457 C   0  0  0  0  0  0  0  0  0  0  0  0
    2.7683  -44.5181  -14.8525 C   0  0  0  0  0  0  0  0  0  0  0  0
    2.8282  -42.9670  -16.9360 C   0  0  0  0  0  0  0  0  0  0  0  0
    1.3446  -42.7714  -16.8331 O   0  0  0  0  0  0  0  0  0  0  0  0
    3.6000  -42.2893  -18.0291 C   0  0  0  0  0  0  0  0  0  0  0  0
    5.0837  -42.4848  -18.1320 C   0  0  0  0  0  0  0  0  0  0  0  0
    5.7955  -43.3581  -17.1417 C   0  0  0  0  0  0  0  0  0  0  0  0
    5.8555  -41.8070  -19.2252 C   0  0  0  0  0  0  0  0  0  0  0  0
    5.6756  -46.4603  -12.9749 C   0  0  0  0  0  0  0  0  0  0  0  0
    1.2847  -44.3225  -14.7496 C   0  0  0  0  0  0  0  0  0  0  0  0
    0.3515  -45.3557  -15.3079 C   0  0  0  0  0  0  0  0  0  0  0  0
   -1.1321  -45.1601  -15.2050 C   0  0  0  0  0  0  0  0  0  0  0  0
   -1.6826  -43.9314  -14.5438 C   0  0  0  0  0  0  0  0  0  0  0  0
   -0.7494  -42.8982  -13.9855 C   0  0  0  0  0  0  0  0  0  0  0  0
    0.7342  -43.0937  -14.0884 C   0  0  0  0  0  0  0  0  0  0  0  0
   -3.1662  -43.7358  -14.4409 Br  0  0  0  0  0  0  0  0  0  0  0  0
    2.8884  -47.5379  -12.5235 N   0  0  0  0  0  0  0  0  0  0  0  0
    2.7083  -46.0691  -12.7691 C   0  0  0  0  0  0  0  0  0  0  0  0
    1.7565  -45.2781  -11.9215 O   0  0  0  0  0  0  0  0  0  0  0  0
   -0.1988  -50.2488   -8.1508 C   0  0  0  0  0  0  0  0  0  0  0  0
    0.5730  -49.5711   -9.2440 C   0  0  0  0  0  0  0  0  0  0  0  0
    0.5170  -50.1060  -10.6443 C   0  0  0  0  0  0  0  0  0  0  0  0
    1.2888  -49.4283  -11.7374 C   0  0  0  0  0  0  0  0  0  0  0  0
    2.1166  -48.2156  -11.4303 C   0  0  0  0  0  0  0  0  0  0  0  0
    2.1725  -47.6807  -10.0301 N   0  0  0  0  0  0  0  0  0  0  0  0
    1.4007  -48.3584   -8.9369 C   0  0  0  0  0  0  0  0  0  0  0  0
 24 25  1  0  0  0
 25 26  2  0  0  0
 26 27  1  0  0  0
 27 28  2  0  0  0
 28 29  1  0  0  0
 29 30  2  0  0  0
 28 21  1  0  0  0
 21 22  1  0  0  0
 22 23  2  0  0  0
 22  1  1  0  0  0
  1  2  2  0  0  0
  2  3  1  0  0  0
  3  4  1  0  0  0
  4  5  2  0  0  0
  5  6  1  0  0  0
  6 14  1  0  0  0
 14 15  2  0  0  0
 15 16  1  0  0  0
 16 17  2  0  0  0
 17 18  1  0  0  0
 18 19  2  0  0  0
 17 20  1  0  0  0
  5  7  1  0  0  0
  7  8  2  0  0  0
  7  9  1  0  0  0
  9 10  1  0  0  0
 10 11  1  0  0  0
 10 12  1  0  0  0
  2 13  1  0  0  0
 30 25  1  0  0  0
  6  1  1  0  0  0
 11  4  1  0  0  0
 19 14  1  0  0  0
M  END
> <minimizedAffinity>
0.93518

$$$$



 30 34  0  0  0  0  0  0  0  0999 V2000
    3.6764  -48.2118  -12.4262 C   0  0  0  0  0  0  0  0  0  0  0  0
    4.3997  -47.4346  -13.4858 C   0  0  0  0  0  0  0  0  0  0  0  0
    3.7729  -46.2049  -14.0734 C   0  0  0  0  0  0  0  0  0  0  0  0
    2.4229  -45.7525  -13.6013 C   0  0  0  0  0  0  0  0  0  0  0  0
    1.6997  -46.5298  -12.5416 C   0  0  0  0  0  0  0  0  0  0  0  0
    2.3265  -47.7594  -11.9541 C   0  0  0  0  0  0  0  0  0  0  0  0
    1.7961  -44.5229  -14.1888 C   0  0  0  0  0  0  0  0  0  0  0  0
    0.4872  -43.8396  -13.9248 C   0  0  0  0  0  0  0  0  0  0  0  0
    0.4015  -42.6400  -14.8212 C   0  0  0  0  0  0  0  0  0  0  0  0
    1.6575  -42.5820  -15.6394 C   0  0  0  0  0  0  0  0  0  0  0  0
    2.5194  -43.7457  -15.2485 C   0  0  0  0  0  0  0  0  0  0  0  0
    3.8694  -44.1981  -15.7206 C   0  0  0  0  0  0  0  0  0  0  0  0
    4.4961  -45.4277  -15.1330 N   0  0  0  0  0  0  0  0  0  0  0  0
    4.5926  -43.4209  -16.7802 C   0  0  0  0  0  0  0  0  0  0  0  0
    3.8165  -42.6866  -17.8331 C   0  0  0  0  0  0  0  0  0  0  0  0
    4.5399  -41.9094  -18.8927 C   0  0  0  0  0  0  0  0  0  0  0  0
    6.0392  -41.8665  -18.8995 C   0  0  0  0  0  0  0  0  0  0  0  0
    6.8153  -42.6009  -17.8466 C   0  0  0  0  0  0  0  0  0  0  0  0
    6.0921  -43.3780  -16.7871 C   0  0  0  0  0  0  0  0  0  0  0  0
    6.8681  -44.1124  -15.7342 O   0  0  0  0  0  0  0  0  0  0  0  0
    8.3147  -42.5580  -17.8535 Cl  0  0  0  0  0  0  0  0  0  0  0  0
    3.7638  -41.1751  -19.9455 Cl  0  0  0  0  0  0  0  0  0  0  0  0
    1.6032  -48.5366  -10.8944 S   0  0  0  0  0  0  0  0  0  0  0  0
    1.3218  -49.6265  -11.8859 O   0  0  0  0  0  0  0  0  0  0  0  0
    1.8846  -47.4467   -9.9030 O   0  0  0  0  0  0  0  0  0  0  0  0
    0.8800  -49.3138   -9.8347 N   0  0  0  0  0  0  0  0  0  0  0  0
    1.1122  -49.2154   -8.3561 C   0  0  0  0  0  0  0  0  0  0  0  0
    0.1733  -50.1666   -7.6752 C   0  0  0  0  0  0  0  0  0  0  0  0
   -0.6392  -50.8529   -8.7330 C   0  0  0  0  0  0  0  0  0  0  0  0
   -0.2024  -50.3258  -10.0676 C   0  0  0  0  0  0  0  0  0  0  0  0
  1  2  2  0  0  0
  2  3  1  0  0  0
  3  4  2  0  0  0
  4  5  1  0  0  0
  5  6  2  0  0  0
  6 23  1  0  0  0
 23 24  2  0  0  0
 23 25  2  0  0  0
 23 26  1  0  0  0
 26 27  1  0  0  0
 27 28  1  0  0  0
 28 29  1  0  0  0
 29 30  1  0  0  0
  4  7  1  0  0  0
  7  8  1  0  0  0
  8  9  2  0  0  0
  9 10  1  0  0  0
 11 10  1  0  0  0
 11 12  1  0  0  0
 12 13  1  0  0  0
 12 14  1  0  0  0
 14 15  2  0  0  0
 15 16  1  0  0  0
 16 17  2  0  0  0
 17 18  1  0  0  0
 18 19  2  0  0  0
 19 20  1  0  0  0
 18 21  1  0  0  0
 16 22  1  0  0  0
  6  1  1  0  0  0
 13  3  1  0  0  0
 30 26  1  0  0  0
 11  7  1  0  0  0
 19 14  1  0  0  0
M  END
> <minimizedAffinity>
2.42408

$$$$



 33 38  0  0  0  0  0  0  0  0999 V2000
    1.3999  -43.0586  -15.4846 C   0  0  0  0  0  0  0  0  0  0  0  0
    0.8910  -43.7823  -14.2733 C   0  0  0  0  0  0  0  0  0  0  0  0
    1.4397  -44.9383  -13.4906 C   0  0  0  0  0  0  0  0  0  0  0  0
    0.4882  -45.2318  -12.3688 C   0  0  0  0  0  0  0  0  0  0  0  0
   -0.6487  -44.2573  -12.4582 C   0  0  0  0  0  0  0  0  0  0  0  0
   -0.3997  -43.3615  -13.6353 C   0  0  0  0  0  0  0  0  0  0  0  0
   -1.1815  -42.2169  -14.2086 C   0  0  0  0  0  0  0  0  0  0  0  0
   -2.4722  -41.7960  -13.5707 C   0  0  0  0  0  0  0  0  0  0  0  0
   -3.2540  -40.6515  -14.1440 C   0  0  0  0  0  0  0  0  0  0  0  0
   -2.7452  -39.9277  -15.3553 C   0  0  0  0  0  0  0  0  0  0  0  0
   -1.4545  -40.3486  -15.9932 C   0  0  0  0  0  0  0  0  0  0  0  0
   -0.6726  -41.4932  -15.4199 C   0  0  0  0  0  0  0  0  0  0  0  0
    0.6180  -41.9140  -16.0579 N   0  0  0  0  0  0  0  0  0  0  0  0
    7.2614  -43.8218  -18.9932 C   0  0  0  0  0  0  0  0  0  0  0  0
    6.6695  -42.4808  -19.3118 C   0  0  0  0  0  0  0  0  0  0  0  0
    5.3788  -42.0600  -18.6737 C   0  0  0  0  0  0  0  0  0  0  0  0
    4.6800  -42.9801  -17.7171 C   0  0  0  0  0  0  0  0  0  0  0  0
    3.3893  -42.5592  -17.0792 C   0  0  0  0  0  0  0  0  0  0  0  0
    2.6906  -43.4794  -16.1226 C   0  0  0  0  0  0  0  0  0  0  0  0
    3.2824  -44.8204  -15.8041 C   0  0  0  0  0  0  0  0  0  0  0  0
    4.5731  -45.2412  -16.4421 C   0  0  0  0  0  0  0  0  0  0  0  0
    5.2718  -44.3211  -17.3986 C   0  0  0  0  0  0  0  0  0  0  0  0
    6.5625  -44.7420  -18.0366 C   0  0  0  0  0  0  0  0  0  0  0  0
   -4.5447  -40.2307  -13.5059 S   0  0  0  0  0  0  0  0  0  0  0  0
   -3.8834  -38.9880  -12.9878 O   0  0  0  0  0  0  0  0  0  0  0  0
   -5.2060  -41.4733  -14.0240 O   0  0  0  0  0  0  0  0  0  0  0  0
   -5.8354  -39.8098  -12.8678 N   0  0  0  0  0  0  0  0  0  0  0  0
   -5.9458  -38.4632  -12.2165 C   0  0  0  0  0  0  0  0  0  0  0  0
   -6.3915  -38.3552  -10.7883 C   0  0  0  0  0  0  0  0  0  0  0  0
   -7.4584  -39.1811  -10.1328 C   0  0  0  0  0  0  0  0  0  0  0  0
   -7.5749  -38.7386   -8.7043 C   0  0  0  0  0  0  0  0  0  0  0  0
   -6.5801  -37.6393   -8.4769 C   0  0  0  0  0  0  0  0  0  0  0  0
   -5.8488  -37.4023   -9.7649 O   0  0  0  0  0  0  0  0  0  0  0  0
 14 15  2  0  0  0
 15 16  1  0  0  0
 16 17  2  0  0  0
 17 18  1  0  0  0
 18 19  2  0  0  0
 19 20  1  0  0  0
 20 21  2  0  0  0
 21 22  1  0  0  0
 22 23  2  0  0  0
  1 19  1  0  0  0
  1  2  1  0  0  0
  2  3  1  0  0  0
  3  4  1  0  0  0
  4  5  2  0  0  0
  6  5  1  0  0  0
  6  7  1  0  0  0
  7  8  2  0  0  0
  8  9  1  0  0  0
  9 10  2  0  0  0
 10 11  1  0  0  0
 11 12  2  0  0  0
 12 13  1  0  0  0
  9 24  1  0  0  0
 24 25  2  0  0  0
 24 26  2  0  0  0
 24 27  1  0  0  0
 27 28  1  0  0  0
 29 28  1  0  0  0
 29 30  1  0  0  0
 30 31  1  0  0  0
 31 32  1  0  0  0
 32 33  1  0  0  0
 23 14  1  0  0  0
 22 17  1  0  0  0
 13  1  1  0  0  0
  6  2  1  0  0  0
 12  7  1  0  0  0
 33 29  1  0  0  0
M  END
> <minimizedAffinity>
7.11794

$$$$



 30 34  0  0  0  0  0  0  0  0999 V2000
    5.8911  -46.8587  -13.1863 C   0  0  0  0  0  0  0  0  0  0  0  0
    4.5229  -46.2835  -12.9690 N   0  0  0  0  0  0  0  0  0  0  0  0
    3.7372  -46.6579  -11.7474 C   0  0  0  0  0  0  0  0  0  0  0  0
    2.3690  -46.0827  -11.5302 C   0  0  0  0  0  0  0  0  0  0  0  0
    1.7865  -45.1331  -12.5346 C   0  0  0  0  0  0  0  0  0  0  0  0
    2.5722  -44.7588  -13.7563 C   0  0  0  0  0  0  0  0  0  0  0  0
    1.9897  -43.8092  -14.7608 C   0  0  0  0  0  0  0  0  0  0  0  0
    0.6215  -43.2340  -14.5436 C   0  0  0  0  0  0  0  0  0  0  0  0
   -0.2069  -42.2811  -15.3534 C   0  0  0  0  0  0  0  0  0  0  0  0
   -1.5045  -42.0665  -14.6322 C   0  0  0  0  0  0  0  0  0  0  0  0
   -1.4781  -42.8868  -13.3767 S   0  0  0  0  0  0  0  0  0  0  0  0
   -0.1642  -43.6084  -13.3219 C   0  0  0  0  0  0  0  0  0  0  0  0
    0.4183  -44.5579  -12.3174 N   0  0  0  0  0  0  0  0  0  0  0  0
    0.1923  -41.6530  -16.6558 N   0  0  0  0  0  0  0  0  0  0  0  0
    3.9404  -45.3340  -13.9735 C   0  0  0  0  0  0  0  0  0  0  0  0
    2.7753  -43.4348  -15.9825 C   0  0  0  0  0  0  0  0  0  0  0  0
    3.2121  -42.0503  -16.3598 C   0  0  0  0  0  0  0  0  0  0  0  0
    3.9689  -42.1390  -17.6519 C   0  0  0  0  0  0  0  0  0  0  0  0
    3.9999  -43.5784  -18.0731 C   0  0  0  0  0  0  0  0  0  0  0  0
    3.2622  -44.3792  -17.0413 S   0  0  0  0  0  0  0  0  0  0  0  0
   -2.6308  -41.1862  -15.0867 C   0  0  0  0  0  0  0  0  0  0  0  0
   -2.9779  -39.9511  -14.3095 O   0  0  0  0  0  0  0  0  0  0  0  0
   -3.4099  -41.5409  -16.3184 O   0  0  0  0  0  0  0  0  0  0  0  0
   -4.1082  -42.8653  -16.4086 C   0  0  0  0  0  0  0  0  0  0  0  0
   -3.3846  -44.1224  -16.0262 C   0  0  0  0  0  0  0  0  0  0  0  0
   -2.5413  -44.8397  -17.0382 C   0  0  0  0  0  0  0  0  0  0  0  0
   -1.8176  -46.0967  -16.6559 C   0  0  0  0  0  0  0  0  0  0  0  0
   -1.9373  -46.6364  -15.2614 C   0  0  0  0  0  0  0  0  0  0  0  0
   -2.7806  -45.9191  -14.2494 C   0  0  0  0  0  0  0  0  0  0  0  0
   -3.5042  -44.6621  -14.6318 C   0  0  0  0  0  0  0  0  0  0  0  0
  1  2  1  0  0  0
  2  3  1  0  0  0
  3  4  1  0  0  0
  4  5  1  0  0  0
  5  6  2  0  0  0
  6  7  1  0  0  0
  7  8  2  0  0  0
  8  9  1  0  0  0
  9 10  2  0  0  0
 10 11  1  0  0  0
 11 12  1  0  0  0
 12 13  2  0  0  0
 10 21  1  0  0  0
 21 22  2  0  0  0
 21 23  1  0  0  0
 23 24  1  0  0  0
 24 25  1  0  0  0
 25 26  2  0  0  0
 26 27  1  0  0  0
 27 28  2  0  0  0
 28 29  1  0  0  0
 29 30  2  0  0  0
  9 14  1  0  0  0
  7 16  1  0  0  0
 16 17  2  0  0  0
 17 18  1  0  0  0
 18 19  2  0  0  0
 19 20  1  0  0  0
  6 15  1  0  0  0
 15  2  1  0  0  0
 13  5  1  0  0  0
 12  8  1  0  0  0
 30 25  1  0  0  0
 20 16  1  0  0  0
M  END
> <minimizedAffinity>
-3.39338

$$$$



 33 37  0  0  0  0  0  0  0  0999 V2000
    1.2347  -46.2530  -12.5574 C   0  0  0  0  0  0  0  0  0  0  0  0
    2.3809  -45.9711  -13.4831 C   0  0  0  0  0  0  0  0  0  0  0  0
    2.2957  -44.8340  -14.4576 C   0  0  0  0  0  0  0  0  0  0  0  0
    1.0644  -43.9788  -14.5065 C   0  0  0  0  0  0  0  0  0  0  0  0
    0.7756  -42.8050  -15.3946 C   0  0  0  0  0  0  0  0  0  0  0  0
    1.6468  -42.1966  -16.4533 N   0  0  0  0  0  0  0  0  0  0  0  0
    3.0220  -42.6116  -16.8853 C   0  0  0  0  0  0  0  0  0  0  0  0
    3.5408  -41.7307  -17.9829 C   0  0  0  0  0  0  0  0  0  0  0  0
    4.9032  -41.9759  -18.5605 C   0  0  0  0  0  0  0  0  0  0  0  0
    5.7469  -43.1019  -18.0405 C   0  0  0  0  0  0  0  0  0  0  0  0
    5.2281  -43.9828  -16.9429 C   0  0  0  0  0  0  0  0  0  0  0  0
    3.8656  -43.7376  -16.3653 C   0  0  0  0  0  0  0  0  0  0  0  0
    3.5424  -44.7267  -15.2849 N   0  0  0  0  0  0  0  0  0  0  0  0
   -0.0818  -44.2607  -13.5808 C   0  0  0  0  0  0  0  0  0  0  0  0
   -1.3131  -43.4055  -13.6297 O   0  0  0  0  0  0  0  0  0  0  0  0
    0.0034  -45.3978  -12.6063 C   0  0  0  0  0  0  0  0  0  0  0  0
   -0.5612  -42.1535  -15.1982 C   0  0  0  0  0  0  0  0  0  0  0  0
   -0.7027  -41.0049  -14.2438 C   0  0  0  0  0  0  0  0  0  0  0  0
   -2.0395  -40.3534  -14.0474 C   0  0  0  0  0  0  0  0  0  0  0  0
   -3.2347  -40.8506  -14.8052 C   0  0  0  0  0  0  0  0  0  0  0  0
   -3.0932  -41.9992  -15.7595 C   0  0  0  0  0  0  0  0  0  0  0  0
   -1.7564  -42.6507  -15.9560 C   0  0  0  0  0  0  0  0  0  0  0  0
   -4.2884  -42.4963  -16.5173 F   0  0  0  0  0  0  0  0  0  0  0  0
    0.4646  -49.6897  -10.7283 C   0  0  0  0  0  0  0  0  0  0  0  0
    1.4903  -49.6646   -9.6341 C   0  0  0  0  0  0  0  0  0  0  0  0
    2.4308  -48.5023   -9.5143 C   0  0  0  0  0  0  0  0  0  0  0  0
    2.3456  -47.3650  -10.4888 C   0  0  0  0  0  0  0  0  0  0  0  0
    1.3200  -47.3902  -11.5830 C   0  0  0  0  0  0  0  0  0  0  0  0
    0.3794  -48.5525  -11.7027 C   0  0  0  0  0  0  0  0  0  0  0  0
   -1.5365  -50.8525  -11.9089 C   0  0  0  0  0  0  0  0  0  0  0  0
   -0.4759  -50.8521  -10.8481 O   0  0  0  0  0  0  0  0  0  0  0  0
    3.2861  -46.2027  -10.3690 O   0  0  0  0  0  0  0  0  0  0  0  0
    4.4334  -46.0645  -11.3255 C   0  0  0  0  0  0  0  0  0  0  0  0
 30 31  1  0  0  0
 31 24  1  0  0  0
 24 25  2  0  0  0
 25 26  1  0  0  0
 26 27  2  0  0  0
 27 28  1  0  0  0
 28 29  2  0  0  0
  1 28  1  0  0  0
  1  2  1  0  0  0
  2  3  1  0  0  0
  3  4  2  0  0  0
  4  5  1  0  0  0
  5  6  1  0  0  0
  6  7  1  0  0  0
  7  8  2  0  0  0
  8  9  1  0  0  0
  9 10  2  0  0  0
 10 11  1  0  0  0
 11 12  2  0  0  0
 12 13  1  0  0  0
  5 17  1  0  0  0
 17 18  2  0  0  0
 18 19  1  0  0  0
 19 20  2  0  0  0
 20 21  1  0  0  0
 21 22  2  0  0  0
 21 23  1  0  0  0
  4 14  1  0  0  0
 14 15  2  0  0  0
 14 16  1  0  0  0
 27 32  1  0  0  0
 32 33  1  0  0  0
 29 24  1  0  0  0
 16  1  1  0  0  0
 13  3  1  0  0  0
 12  7  1  0  0  0
 22 17  1  0  0  0
M  END
> <minimizedAffinity>
-0.60807

$$$$



 29 32  0  0  0  0  0  0  0  0999 V2000
    2.0952  -46.7688  -10.6604 C   0  0  0  0  0  0  0  0  0  0  0  0
    2.7724  -46.2011  -11.8724 C   0  0  0  0  0  0  0  0  0  0  0  0
    3.8554  -45.8657  -12.8545 C   0  0  0  0  0  0  0  0  0  0  0  0
    3.5350  -45.0589  -14.0778 C   0  0  0  0  0  0  0  0  0  0  0  0
    2.1316  -44.5875  -14.3190 C   0  0  0  0  0  0  0  0  0  0  0  0
    1.6007  -43.7781  -15.4649 C   0  0  0  0  0  0  0  0  0  0  0  0
    2.3423  -43.2400  -16.6525 N   0  0  0  0  0  0  0  0  0  0  0  0
    3.7978  -43.3785  -16.9878 C   0  0  0  0  0  0  0  0  0  0  0  0
    4.1320  -42.6857  -18.2755 C   0  0  0  0  0  0  0  0  0  0  0  0
    5.5396  -42.7036  -18.7934 C   0  0  0  0  0  0  0  0  0  0  0  0
    6.6130  -43.4144  -18.0237 C   0  0  0  0  0  0  0  0  0  0  0  0
    6.2788  -44.1073  -16.7360 C   0  0  0  0  0  0  0  0  0  0  0  0
    4.8713  -44.0893  -16.2180 C   0  0  0  0  0  0  0  0  0  0  0  0
    4.7543  -44.8371  -14.9230 N   0  0  0  0  0  0  0  0  0  0  0  0
    1.0486  -44.9230  -13.3369 C   0  0  0  0  0  0  0  0  0  0  0  0
   -0.3548  -44.4517  -13.5781 O   0  0  0  0  0  0  0  0  0  0  0  0
    1.3690  -45.7298  -12.1136 C   0  0  0  0  0  0  0  0  0  0  0  0
    3.9407  -46.8696  -11.2103 C   0  0  0  0  0  0  0  0  0  0  0  0
    0.1345  -43.4653  -15.4167 C   0  0  0  0  0  0  0  0  0  0  0  0
   -0.8645  -44.4784  -15.8919 C   0  0  0  0  0  0  0  0  0  0  0  0
   -2.3307  -44.1655  -15.8437 C   0  0  0  0  0  0  0  0  0  0  0  0
   -2.7980  -42.8398  -15.3203 C   0  0  0  0  0  0  0  0  0  0  0  0
   -1.7990  -41.8267  -14.8450 C   0  0  0  0  0  0  0  0  0  0  0  0
   -0.3327  -42.1395  -14.8933 C   0  0  0  0  0  0  0  0  0  0  0  0
   -4.2641  -42.5270  -15.2721 Br  0  0  0  0  0  0  0  0  0  0  0  0
    0.6662  -41.1265  -14.4180 O   0  0  0  0  0  0  0  0  0  0  0  0
    0.9844  -41.0153  -12.9564 C   0  0  0  0  0  0  0  0  0  0  0  0
   -3.3296  -45.1786  -16.3189 O   0  0  0  0  0  0  0  0  0  0  0  0
   -3.0645  -45.9641  -17.5691 C   0  0  0  0  0  0  0  0  0  0  0  0
  1  2  1  0  0  0
  2  3  1  0  0  0
  3  4  1  0  0  0
  4  5  2  0  0  0
  5  6  1  0  0  0
  6  7  1  0  0  0
  7  8  1  0  0  0
  8  9  2  0  0  0
  9 10  1  0  0  0
 10 11  2  0  0  0
 11 12  1  0  0  0
 12 13  2  0  0  0
 13 14  1  0  0  0
  6 19  1  0  0  0
 19 20  2  0  0  0
 20 21  1  0  0  0
 21 22  2  0  0  0
 22 23  1  0  0  0
 23 24  2  0  0  0
 24 26  1  0  0  0
 26 27  1  0  0  0
 22 25  1  0  0  0
 21 28  1  0  0  0
 28 29  1  0  0  0
  5 15  1  0  0  0
 15 16  2  0  0  0
 15 17  1  0  0  0
  2 18  1  0  0  0
 17  2  1  0  0  0
 14  4  1  0  0  0
 13  8  1  0  0  0
 24 19  1  0  0  0
M  END
> <minimizedAffinity>
-3.14057

$$$$



 33 37  0  0  0  0  0  0  0  0999 V2000
    0.1584  -42.4230  -14.5865 C   0  0  0  0  0  0  0  0  0  0  0  0
    1.0777  -42.0811  -15.7214 C   0  0  0  0  0  0  0  0  0  0  0  0
    2.3588  -42.8397  -15.9035 C   0  0  0  0  0  0  0  0  0  0  0  0
    2.7207  -43.9402  -14.9507 C   0  0  0  0  0  0  0  0  0  0  0  0
    3.9396  -44.8146  -14.9510 C   0  0  0  0  0  0  0  0  0  0  0  0
    5.0976  -44.8042  -15.9043 N   0  0  0  0  0  0  0  0  0  0  0  0
    5.3229  -43.9171  -17.0927 C   0  0  0  0  0  0  0  0  0  0  0  0
    6.6168  -44.2393  -17.7797 C   0  0  0  0  0  0  0  0  0  0  0  0
    7.0334  -43.4655  -18.9953 C   0  0  0  0  0  0  0  0  0  0  0  0
    6.1562  -42.3696  -19.5239 C   0  0  0  0  0  0  0  0  0  0  0  0
    4.8623  -42.0474  -18.8369 C   0  0  0  0  0  0  0  0  0  0  0  0
    4.4457  -42.8211  -17.6213 C   0  0  0  0  0  0  0  0  0  0  0  0
    3.1266  -42.3417  -17.0920 N   0  0  0  0  0  0  0  0  0  0  0  0
    1.8014  -44.2821  -13.8158 C   0  0  0  0  0  0  0  0  0  0  0  0
    2.1632  -45.3826  -12.8630 O   0  0  0  0  0  0  0  0  0  0  0  0
    0.5202  -43.5235  -13.6337 C   0  0  0  0  0  0  0  0  0  0  0  0
   -3.6850  -40.1469  -14.0408 C   0  0  0  0  0  0  0  0  0  0  0  0
   -2.7200  -40.2738  -12.8995 C   0  0  0  0  0  0  0  0  0  0  0  0
   -1.4388  -41.0325  -13.0814 C   0  0  0  0  0  0  0  0  0  0  0  0
   -1.1227  -41.6643  -14.4046 C   0  0  0  0  0  0  0  0  0  0  0  0
   -2.0877  -41.5375  -15.5459 C   0  0  0  0  0  0  0  0  0  0  0  0
   -3.3689  -40.7788  -15.3640 C   0  0  0  0  0  0  0  0  0  0  0  0
   -4.3339  -40.6520  -16.5053 O   0  0  0  0  0  0  0  0  0  0  0  0
   -4.1782  -41.5193  -17.7192 C   0  0  0  0  0  0  0  0  0  0  0  0
   -4.9661  -39.3883  -13.8590 O   0  0  0  0  0  0  0  0  0  0  0  0
   -6.6975  -38.3615  -12.2162 C   0  0  0  0  0  0  0  0  0  0  0  0
   -5.2885  -38.7679  -12.5318 C   0  0  0  0  0  0  0  0  0  0  0  0
    4.0096  -45.8339  -13.8529 C   0  0  0  0  0  0  0  0  0  0  0  0
    3.9185  -47.2952  -14.1791 C   0  0  0  0  0  0  0  0  0  0  0  0
    3.9885  -48.3146  -13.0809 C   0  0  0  0  0  0  0  0  0  0  0  0
    4.1498  -47.8727  -11.6566 C   0  0  0  0  0  0  0  0  0  0  0  0
    4.2409  -46.4114  -11.3303 C   0  0  0  0  0  0  0  0  0  0  0  0
    4.1709  -45.3921  -12.4285 C   0  0  0  0  0  0  0  0  0  0  0  0
 26 27  1  0  0  0
 27 25  1  0  0  0
 25 17  1  0  0  0
 17 18  2  0  0  0
 18 19  1  0  0  0
 19 20  2  0  0  0
 20 21  1  0  0  0
 21 22  2  0  0  0
 22 23  1  0  0  0
 23 24  1  0  0  0
  1 20  1  0  0  0
  1  2  1  0  0  0
  2  3  1  0  0  0
  3  4  2  0  0  0
  4  5  1  0  0  0
  5  6  1  0  0  0
  6  7  1  0  0  0
  7  8  2  0  0  0
  8  9  1  0  0  0
  9 10  2  0  0  0
 10 11  1  0  0  0
 11 12  2  0  0  0
 12 13  1  0  0  0
  5 28  1  0  0  0
 28 29  2  0  0  0
 29 30  1  0  0  0
 30 31  2  0  0  0
 31 32  1  0  0  0
 32 33  2  0  0  0
  4 14  1  0  0  0
 14 15  2  0  0  0
 14 16  1  0  0  0
 22 17  1  0  0  0
 16  1  1  0  0  0
 13  3  1  0  0  0
 12  7  1  0  0  0
 33 28  1  0  0  0
M  END
> <minimizedAffinity>
9.84819

$$$$



 30 33  0  0  0  0  0  0  0  0999 V2000
    1.4819  -42.4868  -15.5428 C   0  0  0  0  0  0  0  0  0  0  0  0
    0.3548  -41.4975  -15.5182 C   0  0  0  0  0  0  0  0  0  0  0  0
   -0.7496  -41.6436  -14.5137 C   0  0  0  0  0  0  0  0  0  0  0  0
   -1.8768  -40.6542  -14.4891 O   0  0  0  0  0  0  0  0  0  0  0  0
   -0.7268  -42.7791  -13.5338 N   0  0  0  0  0  0  0  0  0  0  0  0
    0.4004  -43.7684  -13.5584 C   0  0  0  0  0  0  0  0  0  0  0  0
    1.5047  -43.6223  -14.5629 C   0  0  0  0  0  0  0  0  0  0  0  0
    2.6320  -44.6117  -14.5875 C   0  0  0  0  0  0  0  0  0  0  0  0
    3.7363  -44.4655  -15.5920 O   0  0  0  0  0  0  0  0  0  0  0  0
    2.6548  -45.7472  -13.6076 C   0  0  0  0  0  0  0  0  0  0  0  0
    1.5503  -45.8933  -12.6031 C   0  0  0  0  0  0  0  0  0  0  0  0
    0.4232  -44.9039  -12.5785 C   0  0  0  0  0  0  0  0  0  0  0  0
    1.5731  -47.0288  -11.6233 C   0  0  0  0  0  0  0  0  0  0  0  0
    2.1296  -46.8199  -10.2461 C   0  0  0  0  0  0  0  0  0  0  0  0
    2.1524  -47.9554   -9.2662 C   0  0  0  0  0  0  0  0  0  0  0  0
    1.6187  -49.2997   -9.6635 C   0  0  0  0  0  0  0  0  0  0  0  0
    1.0622  -49.5086  -11.0408 C   0  0  0  0  0  0  0  0  0  0  0  0
    1.0394  -48.3732  -12.0206 C   0  0  0  0  0  0  0  0  0  0  0  0
    0.5286  -50.8530  -11.4381 Cl  0  0  0  0  0  0  0  0  0  0  0  0
    1.6415  -50.4352   -8.6836 Cl  0  0  0  0  0  0  0  0  0  0  0  0
    5.1200  -42.1725  -17.0971 C   0  0  0  0  0  0  0  0  0  0  0  0
    4.0156  -42.3186  -16.0926 C   0  0  0  0  0  0  0  0  0  0  0  0
    2.5864  -42.3407  -16.5473 C   0  0  0  0  0  0  0  0  0  0  0  0
    2.2615  -42.2167  -18.0064 C   0  0  0  0  0  0  0  0  0  0  0  0
    3.3658  -42.0706  -19.0109 C   0  0  0  0  0  0  0  0  0  0  0  0
    4.7952  -42.0485  -18.5562 C   0  0  0  0  0  0  0  0  0  0  0  0
    5.8995  -41.9024  -19.5607 O   0  0  0  0  0  0  0  0  0  0  0  0
    6.5493  -42.1505  -16.6424 O   0  0  0  0  0  0  0  0  0  0  0  0
    7.1157  -44.3391  -17.9227 C   0  0  0  0  0  0  0  0  0  0  0  0
    7.5571  -43.0514  -17.2925 C   0  0  0  0  0  0  0  0  0  0  0  0
 29 30  1  0  0  0
 30 28  1  0  0  0
 28 21  1  0  0  0
 21 22  2  0  0  0
 22 23  1  0  0  0
 23 24  2  0  0  0
 24 25  1  0  0  0
 25 26  2  0  0  0
 26 27  1  0  0  0
  1 23  1  0  0  0
  1  2  1  0  0  0
  2  3  1  0  0  0
  3  4  2  0  0  0
  3  5  1  0  0  0
  5  6  1  0  0  0
  6  7  2  0  0  0
  7  8  1  0  0  0
  8  9  2  0  0  0
  8 10  1  0  0  0
 10 11  1  0  0  0
 11 12  1  0  0  0
 11 13  1  0  0  0
 13 14  2  0  0  0
 14 15  1  0  0  0
 15 16  2  0  0  0
 16 17  1  0  0  0
 17 18  2  0  0  0
 17 19  1  0  0  0
 16 20  1  0  0  0
 26 21  1  0  0  0
  7  1  1  0  0  0
 12  6  1  0  0  0
 18 13  1  0  0  0
M  END
> <minimizedAffinity>
-2.51874

$$$$



 33 37  0  0  0  0  0  0  0  0999 V2000
   -0.0256  -42.4081  -14.4985 C   0  0  0  0  0  0  0  0  0  0  0  0
    0.8559  -42.0346  -15.6533 C   0  0  0  0  0  0  0  0  0  0  0  0
    2.1424  -42.7708  -15.8837 C   0  0  0  0  0  0  0  0  0  0  0  0
    2.5474  -43.8805  -14.9592 C   0  0  0  0  0  0  0  0  0  0  0  0
    3.7785  -44.7361  -15.0080 C   0  0  0  0  0  0  0  0  0  0  0  0
    4.9086  -44.6933  -15.9934 N   0  0  0  0  0  0  0  0  0  0  0  0
    5.0868  -43.7844  -17.1733 C   0  0  0  0  0  0  0  0  0  0  0  0
    6.3652  -44.0762  -17.9016 C   0  0  0  0  0  0  0  0  0  0  0  0
    6.7357  -43.2774  -19.1159 C   0  0  0  0  0  0  0  0  0  0  0  0
    5.8277  -42.1867  -19.6019 C   0  0  0  0  0  0  0  0  0  0  0  0
    4.5494  -41.8949  -18.8735 C   0  0  0  0  0  0  0  0  0  0  0  0
    4.1789  -42.6938  -17.6592 C   0  0  0  0  0  0  0  0  0  0  0  0
    2.8685  -42.2427  -17.0853 N   0  0  0  0  0  0  0  0  0  0  0  0
    1.6659  -44.2540  -13.8044 C   0  0  0  0  0  0  0  0  0  0  0  0
    2.0708  -45.3636  -12.8800 O   0  0  0  0  0  0  0  0  0  0  0  0
    0.3794  -43.5177  -13.5741 C   0  0  0  0  0  0  0  0  0  0  0  0
   -3.8849  -40.1994  -13.8080 C   0  0  0  0  0  0  0  0  0  0  0  0
   -2.7180  -39.9745  -12.8928 C   0  0  0  0  0  0  0  0  0  0  0  0
   -1.4315  -40.7107  -13.1230 C   0  0  0  0  0  0  0  0  0  0  0  0
   -1.3120  -41.6718  -14.2683 C   0  0  0  0  0  0  0  0  0  0  0  0
   -2.4789  -41.8968  -15.1835 C   0  0  0  0  0  0  0  0  0  0  0  0
   -3.7654  -41.1606  -14.9534 C   0  0  0  0  0  0  0  0  0  0  0  0
   -5.1714  -39.4633  -13.5779 O   0  0  0  0  0  0  0  0  0  0  0  0
   -5.4440  -38.8275  -12.2469 C   0  0  0  0  0  0  0  0  0  0  0  0
   -7.4749  -38.8466  -10.6268 C   0  0  0  0  0  0  0  0  0  0  0  0
   -6.8330  -38.3802  -11.8996 C   0  0  0  0  0  0  0  0  0  0  0  0
   -7.5800  -37.4664  -12.8253 C   0  0  0  0  0  0  0  0  0  0  0  0
    3.8947  -45.7713  -13.9288 C   0  0  0  0  0  0  0  0  0  0  0  0
    4.0691  -45.3490  -12.5000 C   0  0  0  0  0  0  0  0  0  0  0  0
    4.1854  -46.3843  -11.4208 C   0  0  0  0  0  0  0  0  0  0  0  0
    4.1273  -47.8418  -11.7703 N   0  0  0  0  0  0  0  0  0  0  0  0
    3.9530  -48.2642  -13.1991 C   0  0  0  0  0  0  0  0  0  0  0  0
    3.8367  -47.2289  -14.2783 C   0  0  0  0  0  0  0  0  0  0  0  0
 25 26  1  0  0  0
 26 27  1  0  0  0
 26 24  1  0  0  0
 24 23  1  0  0  0
 23 17  1  0  0  0
 17 18  2  0  0  0
 18 19  1  0  0  0
 19 20  2  0  0  0
 20 21  1  0  0  0
 21 22  2  0  0  0
  1 20  1  0  0  0
  1  2  1  0  0  0
  2  3  1  0  0  0
  3  4  2  0  0  0
  4  5  1  0  0  0
  5  6  1  0  0  0
  6  7  1  0  0  0
  7  8  2  0  0  0
  8  9  1  0  0  0
  9 10  2  0  0  0
 10 11  1  0  0  0
 11 12  2  0  0  0
 12 13  1  0  0  0
  5 28  1  0  0  0
 28 29  2  0  0  0
 29 30  1  0  0  0
 30 31  2  0  0  0
 31 32  1  0  0  0
 32 33  2  0  0  0
  4 14  1  0  0  0
 14 15  2  0  0  0
 14 16  1  0  0  0
 22 17  1  0  0  0
 16  1  1  0  0  0
 13  3  1  0  0  0
 12  7  1  0  0  0
 33 28  1  0  0  0
M  END
> <minimizedAffinity>
6.65502

$$$$



 33 37  0  0  0  0  0  0  0  0999 V2000
   -0.6353  -42.2891  -14.0945 C   0  0  0  0  0  0  0  0  0  0  0  0
    0.2989  -42.0554  -15.2446 C   0  0  0  0  0  0  0  0  0  0  0  0
    1.5559  -42.8648  -15.3662 C   0  0  0  0  0  0  0  0  0  0  0  0
    1.8787  -43.9079  -14.3376 C   0  0  0  0  0  0  0  0  0  0  0  0
    3.0691  -44.8181  -14.2703 C   0  0  0  0  0  0  0  0  0  0  0  0
    4.2306  -44.9101  -15.2150 N   0  0  0  0  0  0  0  0  0  0  0  0
    4.4888  -44.1145  -16.4602 C   0  0  0  0  0  0  0  0  0  0  0  0
    5.7745  -44.5240  -17.1154 C   0  0  0  0  0  0  0  0  0  0  0  0
    6.2204  -43.8494  -18.3787 C   0  0  0  0  0  0  0  0  0  0  0  0
    5.3807  -42.7654  -18.9868 C   0  0  0  0  0  0  0  0  0  0  0  0
    4.0950  -42.3560  -18.3316 C   0  0  0  0  0  0  0  0  0  0  0  0
    3.6491  -43.0305  -17.0683 C   0  0  0  0  0  0  0  0  0  0  0  0
    2.3438  -42.4744  -16.5814 N   0  0  0  0  0  0  0  0  0  0  0  0
    0.9445  -44.1415  -13.1876 C   0  0  0  0  0  0  0  0  0  0  0  0
    1.2673  -45.1846  -12.1591 O   0  0  0  0  0  0  0  0  0  0  0  0
   -0.3125  -43.3321  -13.0661 C   0  0  0  0  0  0  0  0  0  0  0  0
   -4.4064  -39.8609  -13.7303 C   0  0  0  0  0  0  0  0  0  0  0  0
   -3.2348  -39.5646  -12.8417 C   0  0  0  0  0  0  0  0  0  0  0  0
   -1.9778  -40.3740  -12.9631 C   0  0  0  0  0  0  0  0  0  0  0  0
   -1.8923  -41.4796  -13.9731 C   0  0  0  0  0  0  0  0  0  0  0  0
   -3.0638  -41.7759  -14.8617 C   0  0  0  0  0  0  0  0  0  0  0  0
   -4.3209  -40.9666  -14.7403 C   0  0  0  0  0  0  0  0  0  0  0  0
   -5.6634  -39.0515  -13.6089 O   0  0  0  0  0  0  0  0  0  0  0  0
   -5.8902  -38.1954  -12.3983 C   0  0  0  0  0  0  0  0  0  0  0  0
   -6.7806  -37.9609   -9.9688 C   0  0  0  0  0  0  0  0  0  0  0  0
   -6.7502  -38.6960  -11.2759 C   0  0  0  0  0  0  0  0  0  0  0  0
   -7.5799  -39.9319  -11.4608 C   0  0  0  0  0  0  0  0  0  0  0  0
    3.1023  -45.7611  -13.1043 C   0  0  0  0  0  0  0  0  0  0  0  0
    2.1807  -46.9441  -13.0700 C   0  0  0  0  0  0  0  0  0  0  0  0
    2.2139  -47.8870  -11.9038 C   0  0  0  0  0  0  0  0  0  0  0  0
    3.1686  -47.6470  -10.7721 C   0  0  0  0  0  0  0  0  0  0  0  0
    4.0902  -46.4639  -10.8064 N   0  0  0  0  0  0  0  0  0  0  0  0
    4.0570  -45.5210  -11.9726 C   0  0  0  0  0  0  0  0  0  0  0  0
 25 26  1  0  0  0
 26 27  1  0  0  0
 26 24  1  0  0  0
 24 23  1  0  0  0
 23 17  1  0  0  0
 17 18  2  0  0  0
 18 19  1  0  0  0
 19 20  2  0  0  0
 20 21  1  0  0  0
 21 22  2  0  0  0
  1 20  1  0  0  0
  1  2  1  0  0  0
  2  3  1  0  0  0
  3  4  2  0  0  0
  4  5  1  0  0  0
  5  6  1  0  0  0
  6  7  1  0  0  0
  7  8  2  0  0  0
  8  9  1  0  0  0
  9 10  2  0  0  0
 10 11  1  0  0  0
 11 12  2  0  0  0
 12 13  1  0  0  0
  5 28  1  0  0  0
 28 29  2  0  0  0
 29 30  1  0  0  0
 30 31  2  0  0  0
 31 32  1  0  0  0
 32 33  2  0  0  0
  4 14  1  0  0  0
 14 15  2  0  0  0
 14 16  1  0  0  0
 22 17  1  0  0  0
 16  1  1  0  0  0
 13  3  1  0  0  0
 12  7  1  0  0  0
 33 28  1  0  0  0
M  END
> <minimizedAffinity>
7.97314

$$$$



 27 29  0  0  0  0  0  0  0  0999 V2000
    1.7487  -45.4926  -12.4293 C   0  0  0  0  0  0  0  0  0  0  0  0
    2.2502  -46.7819  -11.8494 S   0  0  0  0  0  0  0  0  0  0  0  0
    2.6032  -44.7197  -13.3898 N   0  0  0  0  0  0  0  0  0  0  0  0
    2.2686  -44.7114  -14.8520 C   0  0  0  0  0  0  0  0  0  0  0  0
    1.0796  -45.4760  -15.3537 O   0  0  0  0  0  0  0  0  0  0  0  0
    3.1230  -43.9386  -15.8125 C   0  0  0  0  0  0  0  0  0  0  0  0
    2.7541  -42.5319  -16.1801 C   0  0  0  0  0  0  0  0  0  0  0  0
    3.6086  -41.7590  -17.1406 C   0  0  0  0  0  0  0  0  0  0  0  0
    4.8319  -42.3928  -17.7336 C   0  0  0  0  0  0  0  0  0  0  0  0
    5.2009  -43.7995  -17.3660 C   0  0  0  0  0  0  0  0  0  0  0  0
    4.3464  -44.5724  -16.4055 C   0  0  0  0  0  0  0  0  0  0  0  0
    6.4242  -44.4334  -17.9590 Br  0  0  0  0  0  0  0  0  0  0  0  0
    5.6864  -41.6200  -18.6941 O   0  0  0  0  0  0  0  0  0  0  0  0
    5.2306  -41.4189  -20.1090 C   0  0  0  0  0  0  0  0  0  0  0  0
    0.3928  -44.9762  -12.0487 N   0  0  0  0  0  0  0  0  0  0  0  0
   -3.5547  -40.5324  -17.1764 C   0  0  0  0  0  0  0  0  0  0  0  0
   -3.1000  -41.7252  -16.3886 C   0  0  0  0  0  0  0  0  0  0  0  0
   -3.7363  -43.0636  -16.6199 C   0  0  0  0  0  0  0  0  0  0  0  0
   -3.2817  -44.2564  -15.8321 C   0  0  0  0  0  0  0  0  0  0  0  0
   -2.1908  -44.1107  -14.8130 C   0  0  0  0  0  0  0  0  0  0  0  0
   -1.5545  -42.7722  -14.5817 C   0  0  0  0  0  0  0  0  0  0  0  0
   -0.5092  -42.9335  -13.5180 S   0  0  0  0  0  0  0  0  0  0  0  0
   -0.4995  -44.3716  -13.0920 C   0  0  0  0  0  0  0  0  0  0  0  0
   -1.5388  -45.0992  -13.8923 C   0  0  0  0  0  0  0  0  0  0  0  0
   -2.0091  -41.5794  -15.3695 C   0  0  0  0  0  0  0  0  0  0  0  0
   -1.8682  -46.5590  -13.7900 C   0  0  0  0  0  0  0  0  0  0  0  0
   -2.1976  -48.0188  -13.6876 N   0  0  0  0  0  0  0  0  0  0  0  0
 17 16  1  0  0  0
 17 18  1  0  0  0
 18 19  1  0  0  0
 19 20  1  0  0  0
 20 21  2  0  0  0
 21 22  1  0  0  0
 22 23  1  0  0  0
 23 24  2  0  0  0
 24 26  1  0  0  0
 26 27  3  0  0  0
 23 15  1  0  0  0
 15  1  1  0  0  0
  1  2  2  0  0  0
  1  3  1  0  0  0
  3  4  1  0  0  0
  4  5  2  0  0  0
  4  6  1  0  0  0
  6  7  2  0  0  0
  7  8  1  0  0  0
  8  9  2  0  0  0
  9 10  1  0  0  0
 10 11  2  0  0  0
 10 12  1  0  0  0
  9 13  1  0  0  0
 13 14  1  0  0  0
 21 25  1  0  0  0
 25 17  1  0  0  0
 24 20  1  0  0  0
 11  6  1  0  0  0
M  END
> <minimizedAffinity>
-4.12573

$$$$



 28 31  0  0  0  0  0  0  0  0999 V2000
    2.8760  -44.2326  -15.4662 C   0  0  0  0  0  0  0  0  0  0  0  0
    3.8558  -44.7741  -16.4645 C   0  0  0  0  0  0  0  0  0  0  0  0
    4.3424  -43.9045  -17.5856 C   0  0  0  0  0  0  0  0  0  0  0  0
    3.8492  -42.4932  -17.7084 C   0  0  0  0  0  0  0  0  0  0  0  0
    2.8694  -41.9516  -16.7100 C   0  0  0  0  0  0  0  0  0  0  0  0
    2.3828  -42.8214  -15.5889 C   0  0  0  0  0  0  0  0  0  0  0  0
    3.3629  -45.6501  -13.3441 C   0  0  0  0  0  0  0  0  0  0  0  0
    4.8231  -45.3284  -13.4641 O   0  0  0  0  0  0  0  0  0  0  0  0
    2.3894  -45.1023  -14.3451 N   0  0  0  0  0  0  0  0  0  0  0  0
   -0.0357  -50.8457   -8.5399 C   0  0  0  0  0  0  0  0  0  0  0  0
    0.8352  -49.7285   -9.0334 C   0  0  0  0  0  0  0  0  0  0  0  0
    1.7340  -49.0004   -8.0785 C   0  0  0  0  0  0  0  0  0  0  0  0
    2.6049  -47.8832   -8.5719 C   0  0  0  0  0  0  0  0  0  0  0  0
    2.5769  -47.4941  -10.0202 C   0  0  0  0  0  0  0  0  0  0  0  0
    1.6781  -48.2222  -10.9751 C   0  0  0  0  0  0  0  0  0  0  0  0
    1.8631  -47.6201  -12.3366 C   0  0  0  0  0  0  0  0  0  0  0  0
    2.8763  -46.5199  -12.2229 C   0  0  0  0  0  0  0  0  0  0  0  0
    3.3174  -46.4420  -10.7914 S   0  0  0  0  0  0  0  0  0  0  0  0
    0.8072  -49.3394  -10.4817 C   0  0  0  0  0  0  0  0  0  0  0  0
    1.4030  -42.2798  -14.5906 N   0  0  0  0  0  0  0  0  0  0  0  0
   -0.0626  -42.2648  -14.9102 S   0  0  0  0  0  0  0  0  0  0  0  0
   -0.0867  -40.7759  -14.7298 O   0  0  0  0  0  0  0  0  0  0  0  0
   -0.0385  -43.7538  -15.0905 O   0  0  0  0  0  0  0  0  0  0  0  0
   -1.5280  -42.2498  -15.2297 C   0  0  0  0  0  0  0  0  0  0  0  0
   -2.4169  -41.0415  -15.2356 C   0  0  0  0  0  0  0  0  0  0  0  0
   -3.8001  -41.4855  -15.6091 C   0  0  0  0  0  0  0  0  0  0  0  0
   -3.7662  -42.9681  -15.8340 C   0  0  0  0  0  0  0  0  0  0  0  0
   -2.3619  -43.4405  -15.5996 S   0  0  0  0  0  0  0  0  0  0  0  0
 11 10  1  0  0  0
 11 12  1  0  0  0
 12 13  1  0  0  0
 13 14  1  0  0  0
 14 15  2  0  0  0
 15 16  1  0  0  0
 16 17  2  0  0  0
 17 18  1  0  0  0
 17  7  1  0  0  0
  7  8  2  0  0  0
  7  9  1  0  0  0
  9  1  1  0  0  0
  1  2  2  0  0  0
  2  3  1  0  0  0
  3  4  2  0  0  0
  4  5  1  0  0  0
  5  6  2  0  0  0
  6 20  1  0  0  0
 20 21  1  0  0  0
 21 22  2  0  0  0
 21 23  2  0  0  0
 21 24  1  0  0  0
 24 25  2  0  0  0
 25 26  1  0  0  0
 26 27  2  0  0  0
 27 28  1  0  0  0
 15 19  1  0  0  0
 19 11  1  0  0  0
 18 14  1  0  0  0
  6  1  1  0  0  0
 28 24  1  0  0  0
M  END
> <minimizedAffinity>
-4.42511

$$$$



 25 27  0  0  0  0  0  0  0  0999 V2000
    4.1763  -45.2502  -14.8761 C   0  0  0  0  0  0  0  0  0  0  0  0
    4.6778  -45.6748  -13.5276 N   0  0  0  0  0  0  0  0  0  0  0  0
    3.5260  -45.6251  -12.5680 C   0  0  0  0  0  0  0  0  0  0  0  0
    3.5784  -45.9702  -11.1092 O   0  0  0  0  0  0  0  0  0  0  0  0
    2.3127  -45.1698  -13.3234 C   0  0  0  0  0  0  0  0  0  0  0  0
    0.9387  -44.9795  -12.7525 C   0  0  0  0  0  0  0  0  0  0  0  0
    2.7146  -44.9381  -14.7498 S   0  0  0  0  0  0  0  0  0  0  0  0
   -0.1826  -44.5167  -13.6348 C   0  0  0  0  0  0  0  0  0  0  0  0
   -0.9653  -45.5130  -14.4377 C   0  0  0  0  0  0  0  0  0  0  0  0
   -2.0866  -45.0502  -15.3200 C   0  0  0  0  0  0  0  0  0  0  0  0
   -2.4252  -43.5910  -15.3994 C   0  0  0  0  0  0  0  0  0  0  0  0
   -1.6425  -42.5947  -14.5964 C   0  0  0  0  0  0  0  0  0  0  0  0
   -0.5212  -43.0576  -13.7141 C   0  0  0  0  0  0  0  0  0  0  0  0
   -1.9810  -41.1356  -14.6758 I   0  0  0  0  0  0  0  0  0  0  0  0
   -3.5465  -43.1282  -16.2818 O   0  0  0  0  0  0  0  0  0  0  0  0
   -2.8693  -46.0464  -16.1230 O   0  0  0  0  0  0  0  0  0  0  0  0
   -2.8680  -45.9691  -17.6211 C   0  0  0  0  0  0  0  0  0  0  0  0
    4.9931  -45.1546  -16.1305 N   0  0  0  0  0  0  0  0  0  0  0  0
    7.2361  -44.2590  -17.9102 C   0  0  0  0  0  0  0  0  0  0  0  0
    5.9117  -43.5566  -17.9615 C   0  0  0  0  0  0  0  0  0  0  0  0
    5.7088  -42.4064  -18.9027 C   0  0  0  0  0  0  0  0  0  0  0  0
    4.3844  -41.7039  -18.9540 C   0  0  0  0  0  0  0  0  0  0  0  0
    3.2630  -42.1516  -18.0642 C   0  0  0  0  0  0  0  0  0  0  0  0
    3.4659  -43.3018  -17.1230 C   0  0  0  0  0  0  0  0  0  0  0  0
    4.7903  -44.0043  -17.0717 C   0  0  0  0  0  0  0  0  0  0  0  0
 19 20  1  0  0  0
 20 21  2  0  0  0
 21 22  1  0  0  0
 22 23  2  0  0  0
 23 24  1  0  0  0
 24 25  2  0  0  0
 25 18  1  0  0  0
 18  1  1  0  0  0
  1  2  2  0  0  0
  2  3  1  0  0  0
  3  4  2  0  0  0
  3  5  1  0  0  0
  5  6  2  0  0  0
  6  8  1  0  0  0
  8  9  2  0  0  0
  9 10  1  0  0  0
 10 11  2  0  0  0
 11 12  1  0  0  0
 12 13  2  0  0  0
 12 14  1  0  0  0
 11 15  1  0  0  0
 10 16  1  0  0  0
 16 17  1  0  0  0
  5  7  1  0  0  0
 25 20  1  0  0  0
  7  1  1  0  0  0
 13  8  1  0  0  0
M  END
> <minimizedAffinity>
-9.28227

$$$$



 31 35  0  0  0  0  0  0  0  0999 V2000
    0.6225  -42.3629  -15.7184 C   0  0  0  0  0  0  0  0  0  0  0  0
   -0.0083  -43.0236  -14.5287 C   0  0  0  0  0  0  0  0  0  0  0  0
   -1.3676  -42.5919  -14.0640 C   0  0  0  0  0  0  0  0  0  0  0  0
   -2.0961  -41.4995  -14.7891 C   0  0  0  0  0  0  0  0  0  0  0  0
   -1.4653  -40.8387  -15.9788 C   0  0  0  0  0  0  0  0  0  0  0  0
   -0.1061  -41.2704  -16.4435 C   0  0  0  0  0  0  0  0  0  0  0  0
    0.6638  -43.1039  -14.9091 C   0  0  0  0  0  0  0  0  0  0  0  0
    0.7202  -44.1161  -13.8036 C   0  0  0  0  0  0  0  0  0  0  0  0
   -0.6391  -43.6844  -13.3390 C   0  0  0  0  0  0  0  0  0  0  0  0
    1.3510  -43.4553  -14.9933 C   0  0  0  0  0  0  0  0  0  0  0  0
    6.0597  -44.0897  -17.5772 C   0  0  0  0  0  0  0  0  0  0  0  0
    4.7004  -43.6580  -17.1125 C   0  0  0  0  0  0  0  0  0  0  0  0
    4.3870  -42.1986  -16.9641 C   0  0  0  0  0  0  0  0  0  0  0  0
    3.0277  -41.7669  -16.4994 C   0  0  0  0  0  0  0  0  0  0  0  0
    1.9818  -42.7946  -16.1831 C   0  0  0  0  0  0  0  0  0  0  0  0
    2.2952  -44.2539  -16.3315 C   0  0  0  0  0  0  0  0  0  0  0  0
    3.6545  -44.6856  -16.7962 C   0  0  0  0  0  0  0  0  0  0  0  0
    1.4488  -45.2086  -13.0786 C   0  0  0  0  0  0  0  0  0  0  0  0
    0.6786  -46.2485  -12.3200 O   0  0  0  0  0  0  0  0  0  0  0  0
    2.9474  -45.2613  -13.1121 N   0  0  0  0  0  0  0  0  0  0  0  0
    3.6759  -46.3537  -12.3870 N   0  0  0  0  0  0  0  0  0  0  0  0
    2.9328  -47.2537  -11.4447 S   0  0  0  0  0  0  0  0  0  0  0  0
    2.7682  -48.2650  -12.5402 O   0  0  0  0  0  0  0  0  0  0  0  0
    3.0973  -46.2423  -10.3492 O   0  0  0  0  0  0  0  0  0  0  0  0
    2.1897  -48.1535  -10.5023 C   0  0  0  0  0  0  0  0  0  0  0  0
    1.3030  -49.2364  -11.0418 C   0  0  0  0  0  0  0  0  0  0  0  0
    0.5598  -50.1363  -10.0994 C   0  0  0  0  0  0  0  0  0  0  0  0
    0.7034  -49.9532   -8.6176 C   0  0  0  0  0  0  0  0  0  0  0  0
    1.5901  -48.8702   -8.0781 C   0  0  0  0  0  0  0  0  0  0  0  0
    2.3332  -47.9704   -9.0204 C   0  0  0  0  0  0  0  0  0  0  0  0
   -0.0397  -50.8530   -7.6753 C   0  0  0  0  0  0  0  0  0  0  0  0
 11 12  1  0  0  0
 12 13  2  0  0  0
 13 14  1  0  0  0
 14 15  2  0  0  0
 15 16  1  0  0  0
 16 17  2  0  0  0
 15  1  1  0  0  0
  1  2  1  0  0  0
  3  2  1  0  0  0
  3  4  1  0  0  0
  5  4  1  0  0  0
  5  6  1  0  0  0
  5  7  1  0  0  0
  7  8  1  0  0  0
  8  9  1  0  0  0
  8 10  1  0  0  0
  8 18  1  0  0  0
 18 19  2  0  0  0
 18 20  1  0  0  0
 20 21  1  0  0  0
 21 22  1  0  0  0
 22 23  2  0  0  0
 22 24  2  0  0  0
 22 25  1  0  0  0
 25 26  2  0  0  0
 26 27  1  0  0  0
 27 28  2  0  0  0
 28 29  1  0  0  0
 29 30  2  0  0  0
 28 31  1  0  0  0
 17 12  1  0  0  0
  6  1  1  0  0  0
 10  1  1  0  0  0
  9  3  1  0  0  0
 30 25  1  0  0  0
M  END
> <minimizedAffinity>
-1.83564

$$$$



 28 31  0  0  0  0  0  0  0  0999 V2000
    2.0626  -47.0519  -11.1646 C   0  0  0  0  0  0  0  0  0  0  0  0
    0.8066  -46.2376  -11.2611 N   0  0  0  0  0  0  0  0  0  0  0  0
    0.6572  -45.2154  -12.3486 C   0  0  0  0  0  0  0  0  0  0  0  0
   -0.5989  -44.4010  -12.4450 O   0  0  0  0  0  0  0  0  0  0  0  0
    1.7637  -45.0075  -13.3397 C   0  0  0  0  0  0  0  0  0  0  0  0
    3.0197  -45.8218  -13.2432 C   0  0  0  0  0  0  0  0  0  0  0  0
    3.1691  -46.8441  -12.1557 N   0  0  0  0  0  0  0  0  0  0  0  0
    4.1263  -45.6140  -14.2344 N   0  0  0  0  0  0  0  0  0  0  0  0
    3.9769  -44.5918  -15.3219 C   0  0  0  0  0  0  0  0  0  0  0  0
    2.7208  -43.7774  -15.4183 C   0  0  0  0  0  0  0  0  0  0  0  0
    1.6143  -43.9853  -14.4272 C   0  0  0  0  0  0  0  0  0  0  0  0
    2.5714  -42.7552  -16.5059 C   0  0  0  0  0  0  0  0  0  0  0  0
    1.3154  -41.9409  -16.6023 O   0  0  0  0  0  0  0  0  0  0  0  0
    3.6780  -42.5473  -17.4970 C   0  0  0  0  0  0  0  0  0  0  0  0
    4.9340  -43.3617  -17.4005 C   0  0  0  0  0  0  0  0  0  0  0  0
    5.0834  -44.3839  -16.3130 C   0  0  0  0  0  0  0  0  0  0  0  0
    6.3033  -43.8840  -17.7204 C   0  0  0  0  0  0  0  0  0  0  0  0
    5.2601  -42.5209  -18.5991 C   0  0  0  0  0  0  0  0  0  0  0  0
    0.3583  -43.1710  -14.5237 C   0  0  0  0  0  0  0  0  0  0  0  0
   -0.8573  -43.7434  -15.1905 C   0  0  0  0  0  0  0  0  0  0  0  0
   -2.1133  -42.9290  -15.2869 C   0  0  0  0  0  0  0  0  0  0  0  0
   -2.1537  -41.5422  -14.7166 C   0  0  0  0  0  0  0  0  0  0  0  0
   -0.9380  -40.9698  -14.0498 C   0  0  0  0  0  0  0  0  0  0  0  0
    0.3179  -41.7842  -13.9533 C   0  0  0  0  0  0  0  0  0  0  0  0
   -3.4097  -40.7278  -14.8130 Br  0  0  0  0  0  0  0  0  0  0  0  0
    2.2120  -48.0741  -10.0771 S   0  0  0  0  0  0  0  0  0  0  0  0
    1.0712  -49.9494   -8.6871 C   0  0  0  0  0  0  0  0  0  0  0  0
    1.2461  -49.2180   -9.9850 C   0  0  0  0  0  0  0  0  0  0  0  0
 27 28  1  0  0  0
 28 26  1  0  0  0
 26  1  1  0  0  0
  1  2  1  0  0  0
  2  3  1  0  0  0
  3  4  2  0  0  0
  3  5  1  0  0  0
  5  6  2  0  0  0
  6  7  1  0  0  0
  6  8  1  0  0  0
  8  9  1  0  0  0
  9 10  2  0  0  0
 10 11  1  0  0  0
 11 19  1  0  0  0
 19 20  2  0  0  0
 20 21  1  0  0  0
 21 22  2  0  0  0
 22 23  1  0  0  0
 23 24  2  0  0  0
 22 25  1  0  0  0
 10 12  1  0  0  0
 12 13  2  0  0  0
 12 14  1  0  0  0
 14 15  1  0  0  0
 15 16  1  0  0  0
 15 17  1  0  0  0
 15 18  1  0  0  0
  7  1  2  0  0  0
 11  5  1  0  0  0
 16  9  1  0  0  0
 24 19  1  0  0  0
M  END
> <minimizedAffinity>
-6.90765

$$$$



 31 35  0  0  0  0  0  0  0  0999 V2000
   -0.8868  -41.5257  -14.3671 C   0  0  0  0  0  0  0  0  0  0  0  0
   -0.0207  -41.2551  -15.5616 N   0  0  0  0  0  0  0  0  0  0  0  0
    1.2460  -42.0332  -15.7613 C   0  0  0  0  0  0  0  0  0  0  0  0
    2.1120  -41.7626  -16.9557 O   0  0  0  0  0  0  0  0  0  0  0  0
    1.6467  -43.0820  -14.7665 C   0  0  0  0  0  0  0  0  0  0  0  0
    0.7806  -43.3526  -13.5720 C   0  0  0  0  0  0  0  0  0  0  0  0
   -0.4861  -42.5744  -13.3724 N   0  0  0  0  0  0  0  0  0  0  0  0
    1.1813  -44.4014  -12.5773 N   0  0  0  0  0  0  0  0  0  0  0  0
    2.4481  -45.1795  -12.7770 C   0  0  0  0  0  0  0  0  0  0  0  0
    3.3141  -44.9089  -13.9714 C   0  0  0  0  0  0  0  0  0  0  0  0
    2.9134  -43.8601  -14.9662 C   0  0  0  0  0  0  0  0  0  0  0  0
    4.5808  -45.6870  -14.1711 C   0  0  0  0  0  0  0  0  0  0  0  0
    5.4469  -45.4164  -15.3656 O   0  0  0  0  0  0  0  0  0  0  0  0
    4.9815  -46.7358  -13.1764 C   0  0  0  0  0  0  0  0  0  0  0  0
    4.1154  -47.0064  -11.9819 C   0  0  0  0  0  0  0  0  0  0  0  0
    2.8487  -46.2283  -11.7822 C   0  0  0  0  0  0  0  0  0  0  0  0
    3.7794  -43.5895  -16.1606 C   0  0  0  0  0  0  0  0  0  0  0  0
    3.7409  -44.5153  -17.3402 C   0  0  0  0  0  0  0  0  0  0  0  0
    4.6070  -44.2447  -18.5346 C   0  0  0  0  0  0  0  0  0  0  0  0
    5.5116  -43.0483  -18.5495 C   0  0  0  0  0  0  0  0  0  0  0  0
    5.5501  -42.1224  -17.3700 C   0  0  0  0  0  0  0  0  0  0  0  0
    4.6841  -42.3930  -16.1755 C   0  0  0  0  0  0  0  0  0  0  0  0
   -2.1535  -40.7476  -14.1674 S   0  0  0  0  0  0  0  0  0  0  0  0
   -3.4506  -41.2755  -14.7048 C   0  0  0  0  0  0  0  0  0  0  0  0
   -3.5348  -46.3740  -17.8668 C   0  0  0  0  0  0  0  0  0  0  0  0
   -3.5137  -45.0994  -17.0763 C   0  0  0  0  0  0  0  0  0  0  0  0
   -3.3945  -45.1456  -15.5818 C   0  0  0  0  0  0  0  0  0  0  0  0
   -3.3734  -43.8710  -14.7913 C   0  0  0  0  0  0  0  0  0  0  0  0
   -3.4717  -42.5502  -15.4953 C   0  0  0  0  0  0  0  0  0  0  0  0
   -3.5909  -42.5039  -16.9898 C   0  0  0  0  0  0  0  0  0  0  0  0
   -3.6120  -43.7785  -17.7803 C   0  0  0  0  0  0  0  0  0  0  0  0
 25 26  1  0  0  0
 26 27  2  0  0  0
 27 28  1  0  0  0
 28 29  2  0  0  0
 29 30  1  0  0  0
 30 31  2  0  0  0
 29 24  1  0  0  0
 24 23  1  0  0  0
 23  1  1  0  0  0
  1  2  1  0  0  0
  2  3  1  0  0  0
  3  4  2  0  0  0
  3  5  1  0  0  0
  5  6  2  0  0  0
  6  7  1  0  0  0
  6  8  1  0  0  0
  8  9  1  0  0  0
  9 10  2  0  0  0
 10 11  1  0  0  0
 11 17  1  0  0  0
 17 18  2  0  0  0
 18 19  1  0  0  0
 19 20  2  0  0  0
 20 21  1  0  0  0
 21 22  2  0  0  0
 10 12  1  0  0  0
 12 13  2  0  0  0
 12 14  1  0  0  0
 14 15  1  0  0  0
 15 16  1  0  0  0
 31 26  1  0  0  0
  7  1  2  0  0  0
 11  5  1  0  0  0
 16  9  1  0  0  0
 22 17  1  0  0  0
M  END
> <minimizedAffinity>
-1.08247

$$$$



 29 33  0  0  0  0  0  0  0  0999 V2000
   -0.0240  -43.5500  -14.4995 C   0  0  0  0  0  0  0  0  0  0  0  0
    0.1111  -44.5588  -13.3977 C   0  0  0  0  0  0  0  0  0  0  0  0
    1.3828  -45.3402  -13.2481 C   0  0  0  0  0  0  0  0  0  0  0  0
    2.5192  -45.1128  -14.2004 N   0  0  0  0  0  0  0  0  0  0  0  0
    2.3840  -44.1040  -15.3022 C   0  0  0  0  0  0  0  0  0  0  0  0
    1.1124  -43.3226  -15.4518 N   0  0  0  0  0  0  0  0  0  0  0  0
    1.5180  -46.3490  -12.1462 C   0  0  0  0  0  0  0  0  0  0  0  0
    2.3134  -46.0168  -10.9187 C   0  0  0  0  0  0  0  0  0  0  0  0
    2.4486  -47.0256   -9.8168 C   0  0  0  0  0  0  0  0  0  0  0  0
    1.7884  -48.3666   -9.9425 C   0  0  0  0  0  0  0  0  0  0  0  0
    0.9930  -48.6988  -11.1701 C   0  0  0  0  0  0  0  0  0  0  0  0
    0.8578  -47.6901  -12.2720 C   0  0  0  0  0  0  0  0  0  0  0  0
    0.4589  -50.0917  -11.0135 O   0  0  0  0  0  0  0  0  0  0  0  0
    0.9243  -50.6204   -9.6891 C   0  0  0  0  0  0  0  0  0  0  0  0
    1.7459  -49.5542   -9.0272 O   0  0  0  0  0  0  0  0  0  0  0  0
   -2.6899  -40.6279  -14.1767 C   0  0  0  0  0  0  0  0  0  0  0  0
   -3.8391  -41.2061  -14.9482 C   0  0  0  0  0  0  0  0  0  0  0  0
   -3.7166  -42.5656  -15.5701 C   0  0  0  0  0  0  0  0  0  0  0  0
   -2.4449  -43.3469  -15.4205 C   0  0  0  0  0  0  0  0  0  0  0  0
   -1.2958  -42.7687  -14.6491 C   0  0  0  0  0  0  0  0  0  0  0  0
   -1.4183  -41.4093  -14.0272 C   0  0  0  0  0  0  0  0  0  0  0  0
   -2.3223  -44.7064  -16.0424 O   0  0  0  0  0  0  0  0  0  0  0  0
    3.5205  -43.8766  -16.2545 C   0  0  0  0  0  0  0  0  0  0  0  0
    3.7054  -42.5326  -16.8943 C   0  0  0  0  0  0  0  0  0  0  0  0
    4.8419  -42.3053  -17.8466 C   0  0  0  0  0  0  0  0  0  0  0  0
    5.7934  -43.4220  -18.1589 C   0  0  0  0  0  0  0  0  0  0  0  0
    5.6085  -44.7660  -17.5191 C   0  0  0  0  0  0  0  0  0  0  0  0
    4.4720  -44.9934  -16.5669 C   0  0  0  0  0  0  0  0  0  0  0  0
    6.9298  -43.1946  -19.1112 Br  0  0  0  0  0  0  0  0  0  0  0  0
 16 17  2  0  0  0
 17 18  1  0  0  0
 18 19  2  0  0  0
 19 20  1  0  0  0
 20 21  2  0  0  0
  1 20  1  0  0  0
  1  2  1  0  0  0
  2  3  1  0  0  0
  3  4  2  0  0  0
  4  5  1  0  0  0
  5  6  1  0  0  0
  5 23  1  0  0  0
 23 24  2  0  0  0
 24 25  1  0  0  0
 25 26  2  0  0  0
 26 27  1  0  0  0
 27 28  2  0  0  0
 26 29  1  0  0  0
  3  7  1  0  0  0
  7  8  2  0  0  0
  8  9  1  0  0  0
  9 10  2  0  0  0
 10 11  1  0  0  0
 11 12  2  0  0  0
 11 13  1  0  0  0
 13 14  1  0  0  0
 14 15  1  0  0  0
 19 22  1  0  0  0
 21 16  1  0  0  0
  6  1  1  0  0  0
 28 23  1  0  0  0
 12  7  1  0  0  0
 15 10  1  0  0  0
M  END
> <minimizedAffinity>
-6.61668

$$$$



 28 31  0  0  0  0  0  0  0  0999 V2000
   -1.3481  -45.3004  -14.3256 C   0  0  0  0  0  0  0  0  0  0  0  0
   -0.6399  -44.7177  -15.5125 C   0  0  0  0  0  0  0  0  0  0  0  0
    0.8576  -44.6335  -15.5255 C   0  0  0  0  0  0  0  0  0  0  0  0
    1.6470  -45.1320  -14.3514 C   0  0  0  0  0  0  0  0  0  0  0  0
    0.9388  -45.7147  -13.1645 C   0  0  0  0  0  0  0  0  0  0  0  0
   -0.5587  -45.7990  -13.1516 C   0  0  0  0  0  0  0  0  0  0  0  0
    1.7282  -46.2133  -11.9905 O   0  0  0  0  0  0  0  0  0  0  0  0
    3.2258  -46.1290  -12.0034 C   0  0  0  0  0  0  0  0  0  0  0  0
    3.9340  -45.5463  -13.1904 C   0  0  0  0  0  0  0  0  0  0  0  0
    3.1446  -45.0477  -14.3644 C   0  0  0  0  0  0  0  0  0  0  0  0
    4.0152  -46.6276  -10.8294 N   0  0  0  0  0  0  0  0  0  0  0  0
    3.8528  -44.4650  -15.5513 C   0  0  0  0  0  0  0  0  0  0  0  0
    4.8002  -45.3110  -16.3492 C   0  0  0  0  0  0  0  0  0  0  0  0
    5.5084  -44.7282  -17.5362 C   0  0  0  0  0  0  0  0  0  0  0  0
    5.2691  -43.2994  -17.9253 C   0  0  0  0  0  0  0  0  0  0  0  0
    4.3217  -42.4534  -17.1274 C   0  0  0  0  0  0  0  0  0  0  0  0
    3.6135  -43.0362  -15.9404 C   0  0  0  0  0  0  0  0  0  0  0  0
    5.9773  -42.7167  -19.1122 Br  0  0  0  0  0  0  0  0  0  0  0  0
    5.4316  -45.4620  -13.2033 C   0  0  0  0  0  0  0  0  0  0  0  0
    6.9292  -45.3779  -13.2162 N   0  0  0  0  0  0  0  0  0  0  0  0
   -2.8457  -45.3847  -14.3127 O   0  0  0  0  0  0  0  0  0  0  0  0
   -3.6410  -44.7738  -15.4281 C   0  0  0  0  0  0  0  0  0  0  0  0
   -4.5888  -45.6205  -16.2247 O   0  0  0  0  0  0  0  0  0  0  0  0
   -3.4454  -41.2085  -16.9501 C   0  0  0  0  0  0  0  0  0  0  0  0
   -3.7090  -42.6788  -17.0870 C   0  0  0  0  0  0  0  0  0  0  0  0
   -3.4884  -43.3159  -15.7470 C   0  0  0  0  0  0  0  0  0  0  0  0
   -3.0885  -42.2395  -14.7820 S   0  0  0  0  0  0  0  0  0  0  0  0
   -3.0619  -40.9370  -15.5255 C   0  0  0  0  0  0  0  0  0  0  0  0
 24 25  1  0  0  0
 25 26  2  0  0  0
 26 27  1  0  0  0
 27 28  1  0  0  0
 26 22  1  0  0  0
 22 23  2  0  0  0
 22 21  1  0  0  0
 21  1  1  0  0  0
  1  2  2  0  0  0
  2  3  1  0  0  0
  3  4  2  0  0  0
  4  5  1  0  0  0
  5  6  2  0  0  0
  5  7  1  0  0  0
  7  8  1  0  0  0
  8  9  2  0  0  0
  9 10  1  0  0  0
 10 12  1  0  0  0
 12 13  2  0  0  0
 13 14  1  0  0  0
 14 15  2  0  0  0
 15 16  1  0  0  0
 16 17  2  0  0  0
 15 18  1  0  0  0
  9 19  1  0  0  0
 19 20  3  0  0  0
  8 11  1  0  0  0
 28 24  2  0  0  0
  6  1  1  0  0  0
 10  4  1  0  0  0
 17 12  1  0  0  0
M  END
> <minimizedAffinity>
-5.92762

$$$$



 28 31  0  0  0  0  0  0  0  0999 V2000
    3.0670  -45.0417  -14.4965 C   0  0  0  0  0  0  0  0  0  0  0  0
    1.5717  -45.1609  -14.4866 C   0  0  0  0  0  0  0  0  0  0  0  0
    0.7772  -44.7319  -15.6843 C   0  0  0  0  0  0  0  0  0  0  0  0
   -0.7180  -44.8512  -15.6743 C   0  0  0  0  0  0  0  0  0  0  0  0
   -1.4186  -45.3995  -14.4667 C   0  0  0  0  0  0  0  0  0  0  0  0
   -0.6241  -45.8285  -13.2689 C   0  0  0  0  0  0  0  0  0  0  0  0
    0.8711  -45.7092  -13.2789 C   0  0  0  0  0  0  0  0  0  0  0  0
    1.6658  -46.1382  -12.0812 O   0  0  0  0  0  0  0  0  0  0  0  0
    3.1610  -46.0190  -12.0911 C   0  0  0  0  0  0  0  0  0  0  0  0
    3.8616  -45.4707  -13.2988 C   0  0  0  0  0  0  0  0  0  0  0  0
    3.9556  -46.4480  -10.8934 N   0  0  0  0  0  0  0  0  0  0  0  0
    5.5224  -44.7595  -17.6016 C   0  0  0  0  0  0  0  0  0  0  0  0
    5.1689  -43.3968  -18.1196 C   0  0  0  0  0  0  0  0  0  0  0  0
    4.1148  -42.5825  -17.4299 C   0  0  0  0  0  0  0  0  0  0  0  0
    3.4142  -43.1308  -16.2222 C   0  0  0  0  0  0  0  0  0  0  0  0
    3.7676  -44.4934  -15.7042 C   0  0  0  0  0  0  0  0  0  0  0  0
    4.8218  -45.3078  -16.3939 C   0  0  0  0  0  0  0  0  0  0  0  0
    2.3601  -42.3164  -15.5324 Br  0  0  0  0  0  0  0  0  0  0  0  0
    5.3569  -45.3514  -13.3087 C   0  0  0  0  0  0  0  0  0  0  0  0
    6.8520  -45.2322  -13.3186 N   0  0  0  0  0  0  0  0  0  0  0  0
   -2.9139  -45.5187  -14.4567 O   0  0  0  0  0  0  0  0  0  0  0  0
   -3.7273  -44.8426  -15.5203 C   0  0  0  0  0  0  0  0  0  0  0  0
   -4.7230  -45.6315  -16.3180 O   0  0  0  0  0  0  0  0  0  0  0  0
   -3.5449  -43.3777  -15.7863 C   0  0  0  0  0  0  0  0  0  0  0  0
   -3.7253  -42.6926  -17.1085 C   0  0  0  0  0  0  0  0  0  0  0  0
   -3.4420  -41.2321  -16.9163 C   0  0  0  0  0  0  0  0  0  0  0  0
   -3.0866  -41.0147  -15.4752 C   0  0  0  0  0  0  0  0  0  0  0  0
   -3.1502  -42.3407  -14.7769 S   0  0  0  0  0  0  0  0  0  0  0  0
 12 13  2  0  0  0
 13 14  1  0  0  0
 14 15  2  0  0  0
 15 16  1  0  0  0
 16 17  2  0  0  0
  1 16  1  0  0  0
  1  2  1  0  0  0
  2  3  2  0  0  0
  3  4  1  0  0  0
  4  5  2  0  0  0
  5  6  1  0  0  0
  6  7  2  0  0  0
  7  8  1  0  0  0
  8  9  1  0  0  0
  9 10  2  0  0  0
 10 19  1  0  0  0
 19 20  3  0  0  0
  9 11  1  0  0  0
  5 21  1  0  0  0
 21 22  1  0  0  0
 22 23  2  0  0  0
 22 24  1  0  0  0
 24 25  2  0  0  0
 25 26  1  0  0  0
 26 27  2  0  0  0
 27 28  1  0  0  0
 15 18  1  0  0  0
 17 12  1  0  0  0
 10  1  1  0  0  0
  7  2  1  0  0  0
 28 24  1  0  0  0
M  END
> <minimizedAffinity>
-5.20579

$$$$



 28 31  0  0  0  0  0  0  0  0999 V2000
    1.1075  -45.6834  -12.8003 C   0  0  0  0  0  0  0  0  0  0  0  0
    1.8650  -46.3523  -11.6919 C   0  0  0  0  0  0  0  0  0  0  0  0
    3.3618  -46.4310  -11.7474 C   0  0  0  0  0  0  0  0  0  0  0  0
    4.1013  -45.8408  -12.9113 C   0  0  0  0  0  0  0  0  0  0  0  0
    3.3438  -45.1718  -14.0198 N   0  0  0  0  0  0  0  0  0  0  0  0
    1.8469  -45.0931  -13.9643 C   0  0  0  0  0  0  0  0  0  0  0  0
    4.0832  -44.5815  -15.1838 C   0  0  0  0  0  0  0  0  0  0  0  0
    5.4640  -44.9573  -15.6334 N   0  0  0  0  0  0  0  0  0  0  0  0
    5.8059  -44.1199  -16.8300 C   0  0  0  0  0  0  0  0  0  0  0  0
    7.0310  -44.0554  -17.6930 C   0  0  0  0  0  0  0  0  0  0  0  0
    7.0866  -43.0976  -18.8460 C   0  0  0  0  0  0  0  0  0  0  0  0
    5.9170  -42.2042  -19.1360 C   0  0  0  0  0  0  0  0  0  0  0  0
    4.6919  -42.2687  -18.2729 C   0  0  0  0  0  0  0  0  0  0  0  0
    4.6363  -43.2265  -17.1200 C   0  0  0  0  0  0  0  0  0  0  0  0
    3.5717  -43.5119  -16.1025 N   0  0  0  0  0  0  0  0  0  0  0  0
    5.9726  -41.2463  -20.2890 Br  0  0  0  0  0  0  0  0  0  0  0  0
   -1.2040  -45.9499  -13.9561 N   0  0  0  0  0  0  0  0  0  0  0  0
   -0.3894  -45.6047  -12.7448 C   0  0  0  0  0  0  0  0  0  0  0  0
   -1.0717  -45.1806  -11.4781 O   0  0  0  0  0  0  0  0  0  0  0  0
   -2.7010  -45.8712  -13.9006 C   0  0  0  0  0  0  0  0  0  0  0  0
   -3.4209  -44.7659  -14.6147 C   0  0  0  0  0  0  0  0  0  0  0  0
   -4.2887  -42.9221  -16.8164 C   0  0  0  0  0  0  0  0  0  0  0  0
   -3.2030  -42.5019  -15.8705 C   0  0  0  0  0  0  0  0  0  0  0  0
   -2.5512  -41.1598  -16.0254 C   0  0  0  0  0  0  0  0  0  0  0  0
   -1.4656  -40.7396  -15.0795 C   0  0  0  0  0  0  0  0  0  0  0  0
   -1.0317  -41.6615  -13.9787 C   0  0  0  0  0  0  0  0  0  0  0  0
   -1.6834  -43.0036  -13.8237 C   0  0  0  0  0  0  0  0  0  0  0  0
   -2.7691  -43.4238  -14.7696 C   0  0  0  0  0  0  0  0  0  0  0  0
 22 23  1  0  0  0
 23 24  2  0  0  0
 24 25  1  0  0  0
 25 26  2  0  0  0
 26 27  1  0  0  0
 27 28  2  0  0  0
 28 21  1  0  0  0
 21 20  1  0  0  0
 20 17  1  0  0  0
 17 18  1  0  0  0
 18 19  2  0  0  0
  1 18  1  0  0  0
  1  2  1  0  0  0
  2  3  1  0  0  0
  3  4  1  0  0  0
  4  5  1  0  0  0
  5  6  1  0  0  0
  5  7  1  0  0  0
  7  8  1  0  0  0
  8  9  1  0  0  0
  9 10  2  0  0  0
 10 11  1  0  0  0
 11 12  2  0  0  0
 12 13  1  0  0  0
 13 14  2  0  0  0
 14 15  1  0  0  0
 12 16  1  0  0  0
 28 23  1  0  0  0
  6  1  1  0  0  0
 15  7  2  0  0  0
 14  9  1  0  0  0
M  END
> <minimizedAffinity>
-3.10616

$$$$



 26 29  0  0  0  0  0  0  0  0999 V2000
   -4.3532  -46.9219  -18.5878 C   0  0  0  0  0  0  0  0  0  0  0  0
   -4.8929  -46.3449  -17.3127 N   0  0  0  0  0  0  0  0  0  0  0  0
   -3.7461  -45.7479  -16.5521 C   0  0  0  0  0  0  0  0  0  0  0  0
   -3.6775  -45.0418  -15.2305 C   0  0  0  0  0  0  0  0  0  0  0  0
   -2.3603  -44.5438  -14.7139 C   0  0  0  0  0  0  0  0  0  0  0  0
   -1.1118  -44.7518  -15.5188 C   0  0  0  0  0  0  0  0  0  0  0  0
   -1.1805  -45.4579  -16.8404 C   0  0  0  0  0  0  0  0  0  0  0  0
   -2.4976  -45.9560  -17.3570 C   0  0  0  0  0  0  0  0  0  0  0  0
   -2.8728  -46.6815  -18.6152 N   0  0  0  0  0  0  0  0  0  0  0  0
   -6.7536  -49.0076  -21.7718 C   0  0  0  0  0  0  0  0  0  0  0  0
   -5.6680  -48.0478  -22.1590 C   0  0  0  0  0  0  0  0  0  0  0  0
   -4.8678  -47.3525  -21.0977 C   0  0  0  0  0  0  0  0  0  0  0  0
   -5.1533  -47.6171  -19.6491 C   0  0  0  0  0  0  0  0  0  0  0  0
   -6.2390  -48.5769  -19.2619 C   0  0  0  0  0  0  0  0  0  0  0  0
   -7.0391  -49.2722  -20.3232 C   0  0  0  0  0  0  0  0  0  0  0  0
    0.2054  -44.2537  -15.0021 S   0  0  0  0  0  0  0  0  0  0  0  0
    0.6694  -45.6686  -14.8210 O   0  0  0  0  0  0  0  0  0  0  0  0
   -0.2586  -42.8389  -15.1832 O   0  0  0  0  0  0  0  0  0  0  0  0
    1.5226  -43.7556  -14.4855 N   0  0  0  0  0  0  0  0  0  0  0  0
    2.6894  -43.6158  -15.4176 C   0  0  0  0  0  0  0  0  0  0  0  0
    2.8403  -42.3769  -16.2498 C   0  0  0  0  0  0  0  0  0  0  0  0
    4.0072  -42.2370  -17.1819 C   0  0  0  0  0  0  0  0  0  0  0  0
    5.0232  -43.3361  -17.2818 C   0  0  0  0  0  0  0  0  0  0  0  0
    4.8723  -44.5749  -16.4496 C   0  0  0  0  0  0  0  0  0  0  0  0
    3.7054  -44.7148  -15.5175 C   0  0  0  0  0  0  0  0  0  0  0  0
    6.1901  -43.1963  -18.2139 Br  0  0  0  0  0  0  0  0  0  0  0  0
 10 11  2  0  0  0
 11 12  1  0  0  0
 12 13  2  0  0  0
 13 14  1  0  0  0
 14 15  2  0  0  0
 13  1  1  0  0  0
  1  2  1  0  0  0
  2  3  1  0  0  0
  3  4  2  0  0  0
  4  5  1  0  0  0
  5  6  2  0  0  0
  6  7  1  0  0  0
  7  8  2  0  0  0
  8  9  1  0  0  0
  6 16  1  0  0  0
 16 17  2  0  0  0
 16 18  2  0  0  0
 16 19  1  0  0  0
 19 20  1  0  0  0
 20 21  2  0  0  0
 21 22  1  0  0  0
 22 23  2  0  0  0
 23 24  1  0  0  0
 24 25  2  0  0  0
 23 26  1  0  0  0
 15 10  1  0  0  0
  9  1  2  0  0  0
  8  3  1  0  0  0
 25 20  1  0  0  0
M  END
> <minimizedAffinity>
-0.03670

$$$$



 32 36  0  0  0  0  0  0  0  0999 V2000
    0.6954  -42.7083  -15.4021 C   0  0  0  0  0  0  0  0  0  0  0  0
   -0.3135  -43.7944  -15.1731 C   0  0  0  0  0  0  0  0  0  0  0  0
   -0.2437  -45.2825  -15.3489 C   0  0  0  0  0  0  0  0  0  0  0  0
   -1.5731  -45.8580  -14.9597 C   0  0  0  0  0  0  0  0  0  0  0  0
   -2.4645  -44.7257  -14.5434 C   0  0  0  0  0  0  0  0  0  0  0  0
   -1.6860  -43.4503  -14.6753 C   0  0  0  0  0  0  0  0  0  0  0  0
   -2.0496  -42.0201  -14.4063 C   0  0  0  0  0  0  0  0  0  0  0  0
   -3.4221  -41.6760  -13.9085 C   0  0  0  0  0  0  0  0  0  0  0  0
   -3.7857  -40.2459  -13.6396 C   0  0  0  0  0  0  0  0  0  0  0  0
   -2.7768  -39.1597  -13.8685 C   0  0  0  0  0  0  0  0  0  0  0  0
   -1.4044  -39.5038  -14.3663 C   0  0  0  0  0  0  0  0  0  0  0  0
   -1.0407  -40.9340  -14.6353 C   0  0  0  0  0  0  0  0  0  0  0  0
    0.3317  -41.2781  -15.1331 N   0  0  0  0  0  0  0  0  0  0  0  0
    4.8129  -43.7402  -16.8957 C   0  0  0  0  0  0  0  0  0  0  0  0
    4.1376  -42.4856  -17.3646 C   0  0  0  0  0  0  0  0  0  0  0  0
    2.7651  -42.1417  -16.8667 C   0  0  0  0  0  0  0  0  0  0  0  0
    2.0679  -43.0523  -15.8999 C   0  0  0  0  0  0  0  0  0  0  0  0
    2.7432  -44.3069  -15.4310 C   0  0  0  0  0  0  0  0  0  0  0  0
    4.1157  -44.6509  -15.9289 C   0  0  0  0  0  0  0  0  0  0  0  0
    7.2767  -44.4121  -16.4183 C   0  0  0  0  0  0  0  0  0  0  0  0
    6.1854  -44.0841  -17.3936 N   0  0  0  0  0  0  0  0  0  0  0  0
    6.4666  -44.1000  -18.8670 C   0  0  0  0  0  0  0  0  0  0  0  0
   -5.1582  -39.9018  -13.1417 S   0  0  0  0  0  0  0  0  0  0  0  0
   -4.6617  -38.5562  -12.7028 O   0  0  0  0  0  0  0  0  0  0  0  0
   -5.6548  -41.2474  -13.5806 O   0  0  0  0  0  0  0  0  0  0  0  0
   -6.5307  -39.5578  -12.6438 N   0  0  0  0  0  0  0  0  0  0  0  0
   -6.7393  -39.2100  -11.1997 C   0  0  0  0  0  0  0  0  0  0  0  0
   -7.3711  -40.2054  -10.2723 C   0  0  0  0  0  0  0  0  0  0  0  0
   -7.5797  -39.8576   -8.8281 C   0  0  0  0  0  0  0  0  0  0  0  0
   -7.1564  -38.5146   -8.3114 C   0  0  0  0  0  0  0  0  0  0  0  0
   -6.5245  -37.5193   -9.2388 C   0  0  0  0  0  0  0  0  0  0  0  0
   -6.3160  -37.8670  -10.6829 C   0  0  0  0  0  0  0  0  0  0  0  0
 20 21  1  0  0  0
 21 22  1  0  0  0
 21 14  1  0  0  0
 14 15  2  0  0  0
 15 16  1  0  0  0
 16 17  2  0  0  0
 17 18  1  0  0  0
 18 19  2  0  0  0
  1 17  1  0  0  0
  1  2  1  0  0  0
  2  3  1  0  0  0
  3  4  1  0  0  0
  4  5  2  0  0  0
  6  5  1  0  0  0
  6  7  1  0  0  0
  7  8  2  0  0  0
  8  9  1  0  0  0
  9 10  2  0  0  0
 10 11  1  0  0  0
 11 12  2  0  0  0
 12 13  1  0  0  0
  9 23  1  0  0  0
 23 24  2  0  0  0
 23 25  2  0  0  0
 23 26  1  0  0  0
 26 27  1  0  0  0
 27 28  2  0  0  0
 28 29  1  0  0  0
 29 30  2  0  0  0
 30 31  1  0  0  0
 31 32  2  0  0  0
 19 14  1  0  0  0
 13  1  1  0  0  0
  6  2  1  0  0  0
 12  7  1  0  0  0
 32 27  1  0  0  0
M  END
> <minimizedAffinity>
15.29312

$$$$



 32 36  0  0  0  0  0  0  0  0999 V2000
    0.9725  -43.6222  -15.0517 C   0  0  0  0  0  0  0  0  0  0  0  0
   -0.2314  -44.5162  -15.0130 C   0  0  0  0  0  0  0  0  0  0  0  0
   -0.3930  -45.9920  -15.2272 C   0  0  0  0  0  0  0  0  0  0  0  0
   -1.8452  -46.3283  -15.0604 C   0  0  0  0  0  0  0  0  0  0  0  0
   -2.5812  -45.0604  -14.7431 C   0  0  0  0  0  0  0  0  0  0  0  0
   -1.5838  -43.9404  -14.7138 C   0  0  0  0  0  0  0  0  0  0  0  0
   -1.7323  -42.4707  -14.4533 C   0  0  0  0  0  0  0  0  0  0  0  0
   -3.0847  -41.8949  -14.1541 C   0  0  0  0  0  0  0  0  0  0  0  0
   -3.2332  -40.4252  -13.8937 C   0  0  0  0  0  0  0  0  0  0  0  0
   -2.0293  -39.5312  -13.9324 C   0  0  0  0  0  0  0  0  0  0  0  0
   -0.6770  -40.1070  -14.2315 C   0  0  0  0  0  0  0  0  0  0  0  0
   -0.5284  -41.5767  -14.4920 C   0  0  0  0  0  0  0  0  0  0  0  0
    0.8239  -42.1525  -14.7912 N   0  0  0  0  0  0  0  0  0  0  0  0
    3.0998  -44.8930  -14.2709 C   0  0  0  0  0  0  0  0  0  0  0  0
    4.4522  -45.4687  -14.5701 C   0  0  0  0  0  0  0  0  0  0  0  0
    5.0297  -45.3493  -15.9493 C   0  0  0  0  0  0  0  0  0  0  0  0
    4.2548  -44.6542  -17.0293 C   0  0  0  0  0  0  0  0  0  0  0  0
    2.9024  -44.0785  -16.7301 C   0  0  0  0  0  0  0  0  0  0  0  0
    2.3249  -44.1980  -15.3509 C   0  0  0  0  0  0  0  0  0  0  0  0
    2.8551  -46.2012  -12.0396 C   0  0  0  0  0  0  0  0  0  0  0  0
    2.5223  -45.0124  -12.8917 O   0  0  0  0  0  0  0  0  0  0  0  0
   -4.5857  -39.8495  -13.5945 S   0  0  0  0  0  0  0  0  0  0  0  0
   -5.2285  -41.1317  -14.0335 O   0  0  0  0  0  0  0  0  0  0  0  0
   -3.9429  -38.5673  -13.1555 O   0  0  0  0  0  0  0  0  0  0  0  0
   -5.9382  -39.2738  -13.2953 N   0  0  0  0  0  0  0  0  0  0  0  0
   -6.2948  -38.8878  -11.8905 C   0  0  0  0  0  0  0  0  0  0  0  0
   -7.2199  -39.7529  -11.0869 C   0  0  0  0  0  0  0  0  0  0  0  0
   -7.5766  -39.3669   -9.6819 C   0  0  0  0  0  0  0  0  0  0  0  0
   -7.0083  -38.1158   -9.0807 C   0  0  0  0  0  0  0  0  0  0  0  0
   -6.0832  -37.2506   -9.8843 C   0  0  0  0  0  0  0  0  0  0  0  0
   -5.7265  -37.6366  -11.2892 C   0  0  0  0  0  0  0  0  0  0  0  0
   -7.3650  -37.7297   -7.6757 F   0  0  0  0  0  0  0  0  0  0  0  0
 20 21  1  0  0  0
 21 14  1  0  0  0
 14 15  2  0  0  0
 15 16  1  0  0  0
 16 17  2  0  0  0
 17 18  1  0  0  0
 18 19  2  0  0  0
  1 19  1  0  0  0
  1  2  1  0  0  0
  2  3  1  0  0  0
  3  4  1  0  0  0
  4  5  2  0  0  0
  6  5  1  0  0  0
  6  7  1  0  0  0
  7  8  2  0  0  0
  8  9  1  0  0  0
  9 10  2  0  0  0
 10 11  1  0  0  0
 11 12  2  0  0  0
 12 13  1  0  0  0
  9 22  1  0  0  0
 22 23  2  0  0  0
 22 24  2  0  0  0
 22 25  1  0  0  0
 25 26  1  0  0  0
 26 27  2  0  0  0
 27 28  1  0  0  0
 28 29  2  0  0  0
 29 30  1  0  0  0
 30 31  2  0  0  0
 29 32  1  0  0  0
 19 14  1  0  0  0
 13  1  1  0  0  0
  6  2  1  0  0  0
 12  7  1  0  0  0
 31 26  1  0  0  0
M  END
> <minimizedAffinity>
11.82041

$$$$



 32 36  0  0  0  0  0  0  0  0999 V2000
   -3.3443  -40.6131  -14.0604 C   0  0  0  0  0  0  0  0  0  0  0  0
   -2.7538  -39.7786  -15.1581 C   0  0  0  0  0  0  0  0  0  0  0  0
   -1.4436  -40.1692  -15.7752 C   0  0  0  0  0  0  0  0  0  0  0  0
   -0.7237  -41.3944  -15.2944 C   0  0  0  0  0  0  0  0  0  0  0  0
   -1.3143  -42.2288  -14.1967 C   0  0  0  0  0  0  0  0  0  0  0  0
   -2.6245  -41.8382  -13.5797 C   0  0  0  0  0  0  0  0  0  0  0  0
   -0.5945  -43.4539  -13.7160 C   0  0  0  0  0  0  0  0  0  0  0  0
   -0.9284  -44.4641  -12.6586 C   0  0  0  0  0  0  0  0  0  0  0  0
    0.1755  -45.4790  -12.6221 C   0  0  0  0  0  0  0  0  0  0  0  0
    1.1916  -45.0961  -13.6570 C   0  0  0  0  0  0  0  0  0  0  0  0
    0.7158  -43.8445  -14.3330 C   0  0  0  0  0  0  0  0  0  0  0  0
    1.3062  -43.0100  -15.4307 C   0  0  0  0  0  0  0  0  0  0  0  0
    0.5864  -41.7850  -15.9114 N   0  0  0  0  0  0  0  0  0  0  0  0
    2.6165  -43.4006  -16.0477 C   0  0  0  0  0  0  0  0  0  0  0  0
    3.4391  -42.3768  -16.7722 C   0  0  0  0  0  0  0  0  0  0  0  0
    4.7494  -42.7675  -17.3892 C   0  0  0  0  0  0  0  0  0  0  0  0
    5.2369  -44.1819  -17.2818 C   0  0  0  0  0  0  0  0  0  0  0  0
    4.4142  -45.2058  -16.5573 C   0  0  0  0  0  0  0  0  0  0  0  0
    3.1040  -44.8152  -15.9403 C   0  0  0  0  0  0  0  0  0  0  0  0
    6.5471  -44.5725  -17.8988 F   0  0  0  0  0  0  0  0  0  0  0  0
   -4.6545  -40.2225  -13.4434 S   0  0  0  0  0  0  0  0  0  0  0  0
   -5.1988  -41.5898  -13.7336 O   0  0  0  0  0  0  0  0  0  0  0  0
   -4.1102  -38.8552  -13.1532 O   0  0  0  0  0  0  0  0  0  0  0  0
   -5.9647  -39.8319  -12.8264 N   0  0  0  0  0  0  0  0  0  0  0  0
   -6.7938  -39.5298  -10.3826 C   0  0  0  0  0  0  0  0  0  0  0  0
   -6.8165  -38.7414   -9.1067 C   0  0  0  0  0  0  0  0  0  0  0  0
   -6.0330  -37.4669   -8.9985 C   0  0  0  0  0  0  0  0  0  0  0  0
   -5.2267  -36.9807  -10.1662 C   0  0  0  0  0  0  0  0  0  0  0  0
   -5.2040  -37.7691  -11.4422 C   0  0  0  0  0  0  0  0  0  0  0  0
   -5.9875  -39.0435  -11.5504 C   0  0  0  0  0  0  0  0  0  0  0  0
   -7.5792  -41.7824   -9.3536 C   0  0  0  0  0  0  0  0  0  0  0  0
   -7.5772  -40.8042  -10.4909 O   0  0  0  0  0  0  0  0  0  0  0  0
 31 32  1  0  0  0
 32 25  1  0  0  0
 25 26  2  0  0  0
 26 27  1  0  0  0
 27 28  2  0  0  0
 28 29  1  0  0  0
 29 30  2  0  0  0
 30 24  1  0  0  0
 24 21  1  0  0  0
 21 22  2  0  0  0
 21 23  2  0  0  0
 21  1  1  0  0  0
  1  2  2  0  0  0
  2  3  1  0  0  0
  3  4  2  0  0  0
  4  5  1  0  0  0
  5  6  2  0  0  0
  5  7  1  0  0  0
  7  8  1  0  0  0
  8  9  2  0  0  0
  9 10  1  0  0  0
 11 10  1  0  0  0
 11 12  1  0  0  0
 12 13  1  0  0  0
 12 14  1  0  0  0
 14 15  2  0  0  0
 15 16  1  0  0  0
 16 17  2  0  0  0
 17 18  1  0  0  0
 18 19  2  0  0  0
 17 20  1  0  0  0
 30 25  1  0  0  0
  6  1  1  0  0  0
 13  4  1  0  0  0
 11  7  1  0  0  0
 19 14  1  0  0  0
M  END
> <minimizedAffinity>
15.05832

$$$$



 24 25  0  0  0  0  0  0  0  0999 V2000
   -0.3206  -41.0821  -13.5793 C   0  0  0  0  0  0  0  0  0  0  0  0
    0.0035  -42.1694  -14.5605 C   0  0  0  0  0  0  0  0  0  0  0  0
   -0.4960  -43.5644  -14.3263 C   0  0  0  0  0  0  0  0  0  0  0  0
    0.2507  -44.4837  -13.4059 C   0  0  0  0  0  0  0  0  0  0  0  0
   -0.2487  -45.8785  -13.1717 C   0  0  0  0  0  0  0  0  0  0  0  0
   -1.4949  -46.3541  -13.8580 C   0  0  0  0  0  0  0  0  0  0  0  0
   -2.2416  -45.4348  -14.7784 C   0  0  0  0  0  0  0  0  0  0  0  0
   -1.7421  -44.0399  -15.0126 C   0  0  0  0  0  0  0  0  0  0  0  0
   -2.4889  -43.1205  -15.9330 O   0  0  0  0  0  0  0  0  0  0  0  0
   -3.8943  -43.4480  -16.3422 C   0  0  0  0  0  0  0  0  0  0  0  0
    0.4980  -46.7979  -12.2512 O   0  0  0  0  0  0  0  0  0  0  0  0
    1.9104  -46.4808  -11.8580 C   0  0  0  0  0  0  0  0  0  0  0  0
    0.8270  -41.8618  -15.7759 N   0  0  0  0  0  0  0  0  0  0  0  0
    2.1674  -42.5102  -15.9574 C   0  0  0  0  0  0  0  0  0  0  0  0
    2.6843  -43.4662  -14.9234 O   0  0  0  0  0  0  0  0  0  0  0  0
    2.9909  -42.2026  -17.1728 N   0  0  0  0  0  0  0  0  0  0  0  0
    4.3313  -42.8510  -17.3542 C   0  0  0  0  0  0  0  0  0  0  0  0
    5.5769  -42.0153  -17.3397 C   0  0  0  0  0  0  0  0  0  0  0  0
    6.9172  -42.6637  -17.5212 C   0  0  0  0  0  0  0  0  0  0  0  0
    7.0120  -44.1479  -17.7171 C   0  0  0  0  0  0  0  0  0  0  0  0
    5.7665  -44.9836  -17.7316 C   0  0  0  0  0  0  0  0  0  0  0  0
    4.4262  -44.3351  -17.5502 C   0  0  0  0  0  0  0  0  0  0  0  0
    3.1806  -45.1709  -17.5646 Br  0  0  0  0  0  0  0  0  0  0  0  0
    8.1628  -41.8280  -17.5067 Br  0  0  0  0  0  0  0  0  0  0  0  0
  2  1  1  0  0  0
  2  3  1  0  0  0
  3  4  2  0  0  0
  4  5  1  0  0  0
  5  6  2  0  0  0
  6  7  1  0  0  0
  7  8  2  0  0  0
  8  9  1  0  0  0
  9 10  1  0  0  0
  5 11  1  0  0  0
 11 12  1  0  0  0
  2 13  1  0  0  0
 13 14  1  0  0  0
 14 15  2  0  0  0
 14 16  1  0  0  0
 16 17  1  0  0  0
 17 18  2  0  0  0
 18 19  1  0  0  0
 19 20  2  0  0  0
 20 21  1  0  0  0
 21 22  2  0  0  0
 22 23  1  0  0  0
 19 24  1  0  0  0
  8  3  1  0  0  0
 22 17  1  0  0  0
M  END
> <minimizedAffinity>
-6.39980

$$$$



 31 34  0  0  0  0  0  0  0  0999 V2000
   -1.3859  -45.0386  -14.5682 C   0  0  0  0  0  0  0  0  0  0  0  0
    0.1119  -44.9587  -14.5586 N   0  0  0  0  0  0  0  0  0  0  0  0
    0.8202  -44.0413  -15.5107 C   0  0  0  0  0  0  0  0  0  0  0  0
    2.3180  -43.9614  -15.5011 C   0  0  0  0  0  0  0  0  0  0  0  0
    3.0263  -43.0439  -16.4534 C   0  0  0  0  0  0  0  0  0  0  0  0
    3.1076  -44.7990  -14.5394 C   0  0  0  0  0  0  0  0  0  0  0  0
    2.3993  -45.7164  -13.5872 C   0  0  0  0  0  0  0  0  0  0  0  0
    0.9015  -45.7963  -13.5968 C   0  0  0  0  0  0  0  0  0  0  0  0
    3.1889  -46.5540  -12.6254 C   0  0  0  0  0  0  0  0  0  0  0  0
    4.6868  -46.4742  -12.6158 N   0  0  0  0  0  0  0  0  0  0  0  0
    5.3950  -45.5567  -13.5680 C   0  0  0  0  0  0  0  0  0  0  0  0
    6.8929  -45.4768  -13.5584 S   0  0  0  0  0  0  0  0  0  0  0  0
    4.6055  -44.7191  -14.5298 N   0  0  0  0  0  0  0  0  0  0  0  0
    2.2367  -42.2064  -17.4151 C   0  0  0  0  0  0  0  0  0  0  0  0
    0.8803  -41.6966  -17.0274 C   0  0  0  0  0  0  0  0  0  0  0  0
    0.0907  -40.8591  -17.9891 C   0  0  0  0  0  0  0  0  0  0  0  0
    0.6575  -40.5312  -19.3386 C   0  0  0  0  0  0  0  0  0  0  0  0
    2.0139  -41.0409  -19.7264 C   0  0  0  0  0  0  0  0  0  0  0  0
    2.8035  -41.8785  -18.7646 C   0  0  0  0  0  0  0  0  0  0  0  0
   -0.1321  -39.6936  -20.3004 N   0  0  0  0  0  0  0  0  0  0  0  0
   -0.2513  -38.2141  -20.0838 C   0  0  0  0  0  0  0  0  0  0  0  0
   -0.8025  -40.3355  -21.4788 C   0  0  0  0  0  0  0  0  0  0  0  0
    2.4807  -47.4715  -11.6733 C   0  0  0  0  0  0  0  0  0  0  0  0
    1.7626  -48.6819  -12.1922 C   0  0  0  0  0  0  0  0  0  0  0  0
    1.0543  -49.5994  -11.2399 C   0  0  0  0  0  0  0  0  0  0  0  0
    1.0641  -49.3064   -9.7689 C   0  0  0  0  0  0  0  0  0  0  0  0
    1.7821  -48.0959   -9.2500 C   0  0  0  0  0  0  0  0  0  0  0  0
    2.4904  -47.1785  -10.2021 C   0  0  0  0  0  0  0  0  0  0  0  0
    0.3558  -50.2238   -8.8167 N   0  0  0  0  0  0  0  0  0  0  0  0
    1.1065  -50.8472   -7.6775 C   0  0  0  0  0  0  0  0  0  0  0  0
   -1.1032  -50.5178   -9.0038 C   0  0  0  0  0  0  0  0  0  0  0  0
  1  2  1  0  0  0
  2  3  1  0  0  0
  3  4  1  0  0  0
  4  5  2  0  0  0
  5 14  1  0  0  0
 14 15  2  0  0  0
 15 16  1  0  0  0
 16 17  2  0  0  0
 17 18  1  0  0  0
 18 19  2  0  0  0
 17 20  1  0  0  0
 20 21  1  0  0  0
 20 22  1  0  0  0
  4  6  1  0  0  0
  6  7  2  0  0  0
  7  8  1  0  0  0
  7  9  1  0  0  0
  9 10  1  0  0  0
 10 11  1  0  0  0
 11 12  2  0  0  0
 11 13  1  0  0  0
  9 23  1  0  0  0
 23 24  2  0  0  0
 24 25  1  0  0  0
 25 26  2  0  0  0
 26 27  1  0  0  0
 27 28  2  0  0  0
 26 29  1  0  0  0
 29 30  1  0  0  0
 29 31  1  0  0  0
  8  2  1  0  0  0
 19 14  1  0  0  0
 13  6  1  0  0  0
 28 23  1  0  0  0
M  END
> <minimizedAffinity>
26.20526

$$$$



 25 28  0  0  0  0  0  0  0  0999 V2000
    2.6370  -44.8685  -13.5435 N   0  0  0  0  0  0  0  0  0  0  0  0
    3.4958  -45.9057  -12.8826 C   0  0  0  0  0  0  0  0  0  0  0  0
    4.9148  -46.0995  -13.3284 O   0  0  0  0  0  0  0  0  0  0  0  0
    2.9355  -46.7490  -11.7759 C   0  0  0  0  0  0  0  0  0  0  0  0
    1.8178  -47.7413  -11.9028 C   0  0  0  0  0  0  0  0  0  0  0  0
    1.5861  -48.3537  -10.5532 C   0  0  0  0  0  0  0  0  0  0  0  0
    0.6138  -49.3909  -10.0753 C   0  0  0  0  0  0  0  0  0  0  0  0
    0.6158  -49.8144   -8.6363 C   0  0  0  0  0  0  0  0  0  0  0  0
    1.5902  -49.2005   -7.6753 C   0  0  0  0  0  0  0  0  0  0  0  0
    2.5627  -48.1633   -8.1532 C   0  0  0  0  0  0  0  0  0  0  0  0
    2.5606  -47.7398   -9.5922 C   0  0  0  0  0  0  0  0  0  0  0  0
    3.3946  -46.7481  -10.3478 O   0  0  0  0  0  0  0  0  0  0  0  0
   -0.3567  -50.8517   -8.1584 Br  0  0  0  0  0  0  0  0  0  0  0  0
    2.4586  -43.9066  -15.9504 C   0  0  0  0  0  0  0  0  0  0  0  0
    3.1973  -44.0252  -14.6503 N   0  0  0  0  0  0  0  0  0  0  0  0
    7.0661  -42.6838  -18.9356 C   0  0  0  0  0  0  0  0  0  0  0  0
    5.8683  -41.8845  -19.3556 C   0  0  0  0  0  0  0  0  0  0  0  0
    4.5529  -42.0844  -18.6631 C   0  0  0  0  0  0  0  0  0  0  0  0
    4.4352  -43.0836  -17.5505 C   0  0  0  0  0  0  0  0  0  0  0  0
    5.6330  -43.8829  -17.1305 C   0  0  0  0  0  0  0  0  0  0  0  0
    6.9484  -43.6830  -17.8231 C   0  0  0  0  0  0  0  0  0  0  0  0
    8.1463  -44.4823  -17.4030 Br  0  0  0  0  0  0  0  0  0  0  0  0
    3.0188  -43.0632  -17.0571 C   0  0  0  0  0  0  0  0  0  0  0  0
    2.2611  -42.0514  -17.8647 C   0  0  0  0  0  0  0  0  0  0  0  0
    3.2092  -41.4465  -18.8573 N   0  0  0  0  0  0  0  0  0  0  0  0
 16 17  2  0  0  0
 17 18  1  0  0  0
 18 19  2  0  0  0
 19 20  1  0  0  0
 20 21  2  0  0  0
 21 22  1  0  0  0
 19 23  1  0  0  0
 23 24  2  0  0  0
 24 25  1  0  0  0
 23 14  1  0  0  0
 14 15  2  0  0  0
 15  1  1  0  0  0
  1  2  1  0  0  0
  2  3  2  0  0  0
  2  4  1  0  0  0
  4  5  2  0  0  0
  5  6  1  0  0  0
  6  7  2  0  0  0
  7  8  1  0  0  0
  8  9  2  0  0  0
  9 10  1  0  0  0
 10 11  2  0  0  0
 11 12  1  0  0  0
  8 13  1  0  0  0
 21 16  1  0  0  0
 25 18  1  0  0  0
 12  4  1  0  0  0
 11  6  1  0  0  0
M  END
> <minimizedAffinity>
-0.67188

$$$$



 23 24  0  0  0  0  0  0  0  0999 V2000
    2.8962  -46.2466  -12.3938 C   0  0  0  0  0  0  0  0  0  0  0  0
    2.0061  -45.1452  -12.8882 O   0  0  0  0  0  0  0  0  0  0  0  0
    4.2720  -46.4136  -12.9676 N   0  0  0  0  0  0  0  0  0  0  0  0
    1.4394  -49.0498   -9.1892 C   0  0  0  0  0  0  0  0  0  0  0  0
    2.3727  -47.9293   -8.8379 C   0  0  0  0  0  0  0  0  0  0  0  0
    2.8583  -46.9949   -9.9061 C   0  0  0  0  0  0  0  0  0  0  0  0
    2.4106  -47.1810  -11.3256 C   0  0  0  0  0  0  0  0  0  0  0  0
    1.4773  -48.3015  -11.6768 C   0  0  0  0  0  0  0  0  0  0  0  0
    0.9917  -49.2359  -10.6086 C   0  0  0  0  0  0  0  0  0  0  0  0
    0.9538  -49.9842   -8.1210 O   0  0  0  0  0  0  0  0  0  0  0  0
   -1.5657  -50.4964   -7.7471 C   0  0  0  0  0  0  0  0  0  0  0  0
   -0.2470  -50.8482   -8.3694 C   0  0  0  0  0  0  0  0  0  0  0  0
    4.7576  -45.4792  -14.0359 N   0  0  0  0  0  0  0  0  0  0  0  0
    3.9438  -45.2736  -15.2791 C   0  0  0  0  0  0  0  0  0  0  0  0
    4.4294  -44.3392  -16.3473 C   0  0  0  0  0  0  0  0  0  0  0  0
    5.8933  -44.2581  -16.6641 C   0  0  0  0  0  0  0  0  0  0  0  0
    6.3790  -43.3237  -17.7323 C   0  0  0  0  0  0  0  0  0  0  0  0
    5.4007  -42.4704  -18.4837 C   0  0  0  0  0  0  0  0  0  0  0  0
    3.9367  -42.5515  -18.1670 C   0  0  0  0  0  0  0  0  0  0  0  0
    3.4511  -43.4859  -17.0988 C   0  0  0  0  0  0  0  0  0  0  0  0
    2.9584  -41.6982  -18.9185 Br  0  0  0  0  0  0  0  0  0  0  0  0
    5.8863  -41.5360  -19.5520 O   0  0  0  0  0  0  0  0  0  0  0  0
    7.8429  -43.2427  -18.0490 Br  0  0  0  0  0  0  0  0  0  0  0  0
 11 12  1  0  0  0
 12 10  1  0  0  0
 10  4  1  0  0  0
  4  5  2  0  0  0
  5  6  1  0  0  0
  6  7  2  0  0  0
  7  8  1  0  0  0
  8  9  2  0  0  0
  7  1  1  0  0  0
  1  2  2  0  0  0
  1  3  1  0  0  0
  3 13  1  0  0  0
 13 14  2  0  0  0
 14 15  1  0  0  0
 15 16  2  0  0  0
 16 17  1  0  0  0
 17 18  2  0  0  0
 18 19  1  0  0  0
 19 20  2  0  0  0
 19 21  1  0  0  0
 18 22  1  0  0  0
 17 23  1  0  0  0
  9  4  1  0  0  0
 20 15  1  0  0  0
M  END
> <minimizedAffinity>
-3.39653

$$$$



 24 25  0  0  0  0  0  0  0  0999 V2000
   -0.8379  -41.1518  -15.1481 C   0  0  0  0  0  0  0  0  0  0  0  0
   -0.9080  -41.1181  -16.6461 O   0  0  0  0  0  0  0  0  0  0  0  0
    0.4792  -41.3684  -14.4636 N   0  0  0  0  0  0  0  0  0  0  0  0
    1.7260  -41.5515  -15.2772 N   0  0  0  0  0  0  0  0  0  0  0  0
    2.0704  -42.9035  -15.8281 C   0  0  0  0  0  0  0  0  0  0  0  0
    3.3172  -43.0866  -16.6417 C   0  0  0  0  0  0  0  0  0  0  0  0
    3.6413  -42.1229  -17.7445 C   0  0  0  0  0  0  0  0  0  0  0  0
    4.8882  -42.3059  -18.5581 C   0  0  0  0  0  0  0  0  0  0  0  0
    5.8108  -43.4527  -18.2689 C   0  0  0  0  0  0  0  0  0  0  0  0
    5.4866  -44.4165  -17.1661 C   0  0  0  0  0  0  0  0  0  0  0  0
    4.2398  -44.2334  -16.3525 C   0  0  0  0  0  0  0  0  0  0  0  0
    3.9156  -45.1971  -15.2497 Br  0  0  0  0  0  0  0  0  0  0  0  0
    7.0576  -43.6358  -19.0824 Br  0  0  0  0  0  0  0  0  0  0  0  0
    5.2124  -41.3422  -19.6608 O   0  0  0  0  0  0  0  0  0  0  0  0
   -2.0847  -40.9687  -14.3346 C   0  0  0  0  0  0  0  0  0  0  0  0
   -2.9525  -42.1500  -14.0159 O   0  0  0  0  0  0  0  0  0  0  0  0
   -2.9849  -45.9102  -17.6020 C   0  0  0  0  0  0  0  0  0  0  0  0
   -2.5607  -45.4027  -16.2557 C   0  0  0  0  0  0  0  0  0  0  0  0
   -1.7285  -46.2677  -15.3562 C   0  0  0  0  0  0  0  0  0  0  0  0
   -1.3043  -45.7602  -14.0099 C   0  0  0  0  0  0  0  0  0  0  0  0
   -1.7123  -44.3876  -13.5631 C   0  0  0  0  0  0  0  0  0  0  0  0
   -2.5445  -43.5226  -14.4626 C   0  0  0  0  0  0  0  0  0  0  0  0
   -2.9687  -44.0301  -15.8089 C   0  0  0  0  0  0  0  0  0  0  0  0
   -3.8009  -43.1650  -16.7084 C   0  0  0  0  0  0  0  0  0  0  0  0
 17 18  1  0  0  0
 18 19  2  0  0  0
 19 20  1  0  0  0
 20 21  2  0  0  0
 21 22  1  0  0  0
 22 23  2  0  0  0
 23 24  1  0  0  0
 22 16  1  0  0  0
 16 15  1  0  0  0
 15  1  1  0  0  0
  1  2  2  0  0  0
  1  3  1  0  0  0
  3  4  1  0  0  0
  4  5  2  0  0  0
  5  6  1  0  0  0
  6  7  2  0  0  0
  7  8  1  0  0  0
  8  9  2  0  0  0
  9 10  1  0  0  0
 10 11  2  0  0  0
 11 12  1  0  0  0
  9 13  1  0  0  0
  8 14  1  0  0  0
 23 18  1  0  0  0
 11  6  1  0  0  0
M  END
> <minimizedAffinity>
-8.65173

$$$$



 27 29  0  0  0  0  0  0  0  0999 V2000
    0.2798  -45.9872  -14.5043 N   0  0  0  0  0  0  0  0  0  0  0  0
   -1.1371  -45.5537  -14.2708 C   0  0  0  0  0  0  0  0  0  0  0  0
   -1.6248  -45.3046  -12.8744 O   0  0  0  0  0  0  0  0  0  0  0  0
    2.5418  -45.4835  -13.3297 C   0  0  0  0  0  0  0  0  0  0  0  0
    3.4710  -45.6679  -12.1667 C   0  0  0  0  0  0  0  0  0  0  0  0
    3.0673  -46.5405  -11.0153 C   0  0  0  0  0  0  0  0  0  0  0  0
    1.7346  -47.2286  -11.0269 C   0  0  0  0  0  0  0  0  0  0  0  0
    0.8054  -47.0442  -12.1899 C   0  0  0  0  0  0  0  0  0  0  0  0
    1.2090  -46.1716  -13.3413 C   0  0  0  0  0  0  0  0  0  0  0  0
    2.4932  -42.5706  -16.0246 C   0  0  0  0  0  0  0  0  0  0  0  0
    2.0896  -43.4432  -14.8732 N   0  0  0  0  0  0  0  0  0  0  0  0
    2.9454  -44.6109  -14.4811 C   0  0  0  0  0  0  0  0  0  0  0  0
    4.2049  -44.9061  -15.2404 O   0  0  0  0  0  0  0  0  0  0  0  0
    3.9966  -46.7249   -9.8522 O   0  0  0  0  0  0  0  0  0  0  0  0
    3.5367  -47.4730   -8.6361 C   0  0  0  0  0  0  0  0  0  0  0  0
   -2.0663  -45.3693  -15.4339 C   0  0  0  0  0  0  0  0  0  0  0  0
   -2.7188  -44.0830  -15.8457 C   0  0  0  0  0  0  0  0  0  0  0  0
   -3.5619  -44.3575  -17.0556 C   0  0  0  0  0  0  0  0  0  0  0  0
   -3.4305  -45.8135  -17.3915 C   0  0  0  0  0  0  0  0  0  0  0  0
   -2.5061  -46.4389  -16.3892 S   0  0  0  0  0  0  0  0  0  0  0  0
   -4.1049  -46.5202  -18.5298 C   0  0  0  0  0  0  0  0  0  0  0  0
   -5.3429  -47.3300  -18.2818 C   0  0  0  0  0  0  0  0  0  0  0  0
   -6.0174  -48.0367  -19.4201 C   0  0  0  0  0  0  0  0  0  0  0  0
   -5.4538  -47.9334  -20.8065 C   0  0  0  0  0  0  0  0  0  0  0  0
   -4.2159  -47.1235  -21.0545 C   0  0  0  0  0  0  0  0  0  0  0  0
   -3.5414  -46.4169  -19.9161 C   0  0  0  0  0  0  0  0  0  0  0  0
   -6.1283  -48.6400  -21.9448 Br  0  0  0  0  0  0  0  0  0  0  0  0
 10 11  1  0  0  0
 11 12  1  0  0  0
 12 13  2  0  0  0
 12  4  1  0  0  0
  4  5  2  0  0  0
  5  6  1  0  0  0
  6  7  2  0  0  0
  7  8  1  0  0  0
  8  9  2  0  0  0
  9  1  1  0  0  0
  1  2  1  0  0  0
  2  3  2  0  0  0
  2 16  1  0  0  0
 16 17  2  0  0  0
 17 18  1  0  0  0
 18 19  2  0  0  0
 19 20  1  0  0  0
 19 21  1  0  0  0
 21 22  2  0  0  0
 22 23  1  0  0  0
 23 24  2  0  0  0
 24 25  1  0  0  0
 25 26  2  0  0  0
 24 27  1  0  0  0
  6 14  1  0  0  0
 14 15  1  0  0  0
  9  4  1  0  0  0
 20 16  1  0  0  0
 26 21  1  0  0  0
M  END
> <minimizedAffinity>
7.02737

$$$$



 29 32  0  0  0  0  0  0  0  0999 V2000
    2.5243  -46.8260  -11.2341 C   0  0  0  0  0  0  0  0  0  0  0  0
    3.5794  -46.6220  -12.2806 N   0  0  0  0  0  0  0  0  0  0  0  0
    3.3519  -45.6430  -13.3941 C   0  0  0  0  0  0  0  0  0  0  0  0
    2.0693  -44.8682  -13.4611 C   0  0  0  0  0  0  0  0  0  0  0  0
    1.0142  -45.0723  -12.4147 C   0  0  0  0  0  0  0  0  0  0  0  0
   -0.2684  -44.2974  -12.4817 O   0  0  0  0  0  0  0  0  0  0  0  0
    1.2418  -46.0512  -11.3012 N   0  0  0  0  0  0  0  0  0  0  0  0
    1.8418  -43.8892  -14.5747 C   0  0  0  0  0  0  0  0  0  0  0  0
    2.8968  -43.6852  -15.6211 C   0  0  0  0  0  0  0  0  0  0  0  0
    4.1795  -44.4600  -15.5541 C   0  0  0  0  0  0  0  0  0  0  0  0
    4.4070  -45.4390  -14.4406 N   0  0  0  0  0  0  0  0  0  0  0  0
    5.2346  -44.2560  -16.6006 C   0  0  0  0  0  0  0  0  0  0  0  0
    5.0070  -43.2770  -17.7141 C   0  0  0  0  0  0  0  0  0  0  0  0
    3.7245  -42.5022  -17.7812 C   0  0  0  0  0  0  0  0  0  0  0  0
    2.6693  -42.7062  -16.7347 C   0  0  0  0  0  0  0  0  0  0  0  0
    1.3867  -41.9314  -16.8017 O   0  0  0  0  0  0  0  0  0  0  0  0
    5.2548  -42.4699  -18.9539 C   0  0  0  0  0  0  0  0  0  0  0  0
    6.3757  -43.7716  -18.0776 C   0  0  0  0  0  0  0  0  0  0  0  0
    0.5592  -43.1144  -14.6417 C   0  0  0  0  0  0  0  0  0  0  0  0
   -0.7332  -43.5977  -15.2301 C   0  0  0  0  0  0  0  0  0  0  0  0
   -1.7474  -42.5021  -15.0841 C   0  0  0  0  0  0  0  0  0  0  0  0
   -1.0818  -41.3417  -14.4056 C   0  0  0  0  0  0  0  0  0  0  0  0
    0.3437  -41.7201  -14.1321 S   0  0  0  0  0  0  0  0  0  0  0  0
    2.7519  -47.8050  -10.1206 S   0  0  0  0  0  0  0  0  0  0  0  0
    1.6257  -48.1666   -9.1981 C   0  0  0  0  0  0  0  0  0  0  0  0
    1.4403  -49.5901   -8.7631 C   0  0  0  0  0  0  0  0  0  0  0  0
   -0.8229  -50.8526   -8.5774 C   0  0  0  0  0  0  0  0  0  0  0  0
    0.3670  -50.4315   -9.3878 C   0  0  0  0  0  0  0  0  0  0  0  0
    0.4837  -50.8518  -10.8230 C   0  0  0  0  0  0  0  0  0  0  0  0
 27 28  1  0  0  0
 28 29  1  0  0  0
 28 26  1  0  0  0
 26 25  1  0  0  0
 25 24  1  0  0  0
 24  1  1  0  0  0
  1  2  1  0  0  0
  2  3  1  0  0  0
  3  4  2  0  0  0
  4  5  1  0  0  0
  5  6  2  0  0  0
  5  7  1  0  0  0
  4  8  1  0  0  0
  8  9  1  0  0  0
  9 10  2  0  0  0
 10 11  1  0  0  0
 10 12  1  0  0  0
 12 13  1  0  0  0
 13 14  1  0  0  0
 14 15  1  0  0  0
 15 16  2  0  0  0
 13 17  1  0  0  0
 13 18  1  0  0  0
  8 19  1  0  0  0
 19 20  2  0  0  0
 20 21  1  0  0  0
 21 22  2  0  0  0
 22 23  1  0  0  0
  7  1  2  0  0  0
 11  3  1  0  0  0
 15  9  1  0  0  0
 23 19  1  0  0  0
M  END
> <minimizedAffinity>
-6.18034

$$$$



 28 30  0  0  0  0  0  0  0  0999 V2000
   -2.0964  -44.3095  -15.6424 C   0  0  0  0  0  0  0  0  0  0  0  0
   -3.5357  -44.0051  -15.9352 C   0  0  0  0  0  0  0  0  0  0  0  0
   -4.3425  -44.9413  -16.7853 C   0  0  0  0  0  0  0  0  0  0  0  0
   -3.7099  -46.1821  -17.3425 C   0  0  0  0  0  0  0  0  0  0  0  0
   -2.2706  -46.4866  -17.0496 C   0  0  0  0  0  0  0  0  0  0  0  0
   -1.4639  -45.5503  -16.1996 C   0  0  0  0  0  0  0  0  0  0  0  0
   -0.8630  -42.0432  -15.3389 N   0  0  0  0  0  0  0  0  0  0  0  0
   -1.2897  -43.3733  -14.7924 C   0  0  0  0  0  0  0  0  0  0  0  0
   -0.9096  -43.7671  -13.3957 O   0  0  0  0  0  0  0  0  0  0  0  0
    1.4315  -41.2731  -14.3943 C   0  0  0  0  0  0  0  0  0  0  0  0
   -0.0562  -41.1069  -14.4888 N   0  0  0  0  0  0  0  0  0  0  0  0
    2.1754  -43.7564  -14.5674 C   0  0  0  0  0  0  0  0  0  0  0  0
    2.8564  -44.8588  -15.3230 C   0  0  0  0  0  0  0  0  0  0  0  0
    3.4745  -44.5803  -16.6611 C   0  0  0  0  0  0  0  0  0  0  0  0
    3.4116  -43.1995  -17.2435 C   0  0  0  0  0  0  0  0  0  0  0  0
    2.7307  -42.0971  -16.4879 C   0  0  0  0  0  0  0  0  0  0  0  0
    2.1126  -42.3756  -15.1499 C   0  0  0  0  0  0  0  0  0  0  0  0
    4.1555  -45.6828  -17.4167 F   0  0  0  0  0  0  0  0  0  0  0  0
   -4.5166  -47.1183  -18.1925 N   0  0  0  0  0  0  0  0  0  0  0  0
   -4.3526  -47.1076  -19.6835 C   0  0  0  0  0  0  0  0  0  0  0  0
   -3.3818  -46.1606  -20.3244 O   0  0  0  0  0  0  0  0  0  0  0  0
   -5.1593  -48.0439  -20.5335 C   0  0  0  0  0  0  0  0  0  0  0  0
   -5.7310  -47.5696  -21.8367 C   0  0  0  0  0  0  0  0  0  0  0  0
   -6.5378  -48.5059  -22.6868 C   0  0  0  0  0  0  0  0  0  0  0  0
   -6.7728  -49.9164  -22.2337 C   0  0  0  0  0  0  0  0  0  0  0  0
   -6.2011  -50.3906  -20.9304 C   0  0  0  0  0  0  0  0  0  0  0  0
   -5.3943  -49.4543  -20.0804 C   0  0  0  0  0  0  0  0  0  0  0  0
   -7.5795  -50.8526  -23.0837 Br  0  0  0  0  0  0  0  0  0  0  0  0
 12 13  2  0  0  0
 13 14  1  0  0  0
 14 15  2  0  0  0
 15 16  1  0  0  0
 16 17  2  0  0  0
 17 10  1  0  0  0
 10 11  2  0  0  0
 11  7  1  0  0  0
  7  8  1  0  0  0
  8  9  2  0  0  0
  8  1  1  0  0  0
  1  2  2  0  0  0
  2  3  1  0  0  0
  3  4  2  0  0  0
  4  5  1  0  0  0
  5  6  2  0  0  0
  4 19  1  0  0  0
 19 20  1  0  0  0
 20 21  2  0  0  0
 20 22  1  0  0  0
 22 23  2  0  0  0
 23 24  1  0  0  0
 24 25  2  0  0  0
 25 26  1  0  0  0
 26 27  2  0  0  0
 25 28  1  0  0  0
 14 18  1  0  0  0
 17 12  1  0  0  0
  6  1  1  0  0  0
 27 22  1  0  0  0
M  END
> <minimizedAffinity>
1.16490

$$$$



 33 36  0  0  0  0  0  0  0  0999 V2000
   -2.0890  -45.6584  -15.7437 C   0  0  0  0  0  0  0  0  0  0  0  0
   -2.4135  -46.2545  -14.4061 C   0  0  0  0  0  0  0  0  0  0  0  0
   -1.3430  -46.3848  -13.3634 C   0  0  0  0  0  0  0  0  0  0  0  0
    0.0520  -45.9191  -13.6584 C   0  0  0  0  0  0  0  0  0  0  0  0
    0.3765  -45.3230  -14.9961 N   0  0  0  0  0  0  0  0  0  0  0  0
   -0.6940  -45.1927  -16.0387 C   0  0  0  0  0  0  0  0  0  0  0  0
    1.7715  -44.8573  -15.2912 C   0  0  0  0  0  0  0  0  0  0  0  0
    2.8420  -44.9877  -14.2485 O   0  0  0  0  0  0  0  0  0  0  0  0
    2.0961  -44.2612  -16.6288 N   0  0  0  0  0  0  0  0  0  0  0  0
    3.4911  -43.7955  -16.9238 C   0  0  0  0  0  0  0  0  0  0  0  0
    3.7930  -42.3278  -16.9925 C   0  0  0  0  0  0  0  0  0  0  0  0
    5.1880  -41.8621  -17.2875 C   0  0  0  0  0  0  0  0  0  0  0  0
    6.2811  -42.8640  -17.5139 C   0  0  0  0  0  0  0  0  0  0  0  0
    5.9792  -44.3318  -17.4453 C   0  0  0  0  0  0  0  0  0  0  0  0
    4.5842  -44.7975  -17.1502 C   0  0  0  0  0  0  0  0  0  0  0  0
    4.2822  -46.2652  -17.0816 F   0  0  0  0  0  0  0  0  0  0  0  0
    7.6761  -42.3983  -17.8089 F   0  0  0  0  0  0  0  0  0  0  0  0
    1.1224  -46.0495  -12.6158 C   0  0  0  0  0  0  0  0  0  0  0  0
    1.3940  -47.3817  -11.9823 C   0  0  0  0  0  0  0  0  0  0  0  0
    2.4646  -47.5120  -10.9396 C   0  0  0  0  0  0  0  0  0  0  0  0
    3.2634  -46.3102  -10.5305 C   0  0  0  0  0  0  0  0  0  0  0  0
    2.9918  -44.9779  -11.1641 C   0  0  0  0  0  0  0  0  0  0  0  0
    1.9213  -44.8476  -12.2067 C   0  0  0  0  0  0  0  0  0  0  0  0
   -3.3474  -46.6105  -17.8077 N   0  0  0  0  0  0  0  0  0  0  0  0
   -3.1595  -45.5280  -16.7864 C   0  0  0  0  0  0  0  0  0  0  0  0
   -4.0419  -44.3153  -16.8078 O   0  0  0  0  0  0  0  0  0  0  0  0
   -4.4179  -46.4802  -18.8503 C   0  0  0  0  0  0  0  0  0  0  0  0
   -6.3719  -50.1641  -20.5417 C   0  0  0  0  0  0  0  0  0  0  0  0
   -7.0554  -49.3823  -19.4593 C   0  0  0  0  0  0  0  0  0  0  0  0
   -6.4041  -48.1543  -18.8956 C   0  0  0  0  0  0  0  0  0  0  0  0
   -5.0692  -47.7081  -19.4141 C   0  0  0  0  0  0  0  0  0  0  0  0
   -4.3856  -48.4899  -20.4964 C   0  0  0  0  0  0  0  0  0  0  0  0
   -5.0370  -49.7179  -21.0602 C   0  0  0  0  0  0  0  0  0  0  0  0
 28 29  2  0  0  0
 29 30  1  0  0  0
 30 31  2  0  0  0
 31 32  1  0  0  0
 32 33  2  0  0  0
 31 27  1  0  0  0
 27 24  1  0  0  0
 24 25  1  0  0  0
 25 26  2  0  0  0
  1 25  1  0  0  0
  1  2  1  0  0  0
  2  3  1  0  0  0
  3  4  1  0  0  0
  4  5  1  0  0  0
  5  6  1  0  0  0
  5  7  1  0  0  0
  7  8  2  0  0  0
  7  9  1  0  0  0
  9 10  1  0  0  0
 10 11  2  0  0  0
 11 12  1  0  0  0
 12 13  2  0  0  0
 13 14  1  0  0  0
 14 15  2  0  0  0
 15 16  1  0  0  0
 13 17  1  0  0  0
  4 18  1  0  0  0
 18 19  2  0  0  0
 19 20  1  0  0  0
 20 21  2  0  0  0
 21 22  1  0  0  0
 22 23  2  0  0  0
 33 28  1  0  0  0
  6  1  1  0  0  0
 15 10  1  0  0  0
 23 18  1  0  0  0
M  END
> <minimizedAffinity>
2.61749

$$$$



 32 36  0  0  0  0  0  0  0  0999 V2000
   -4.4746  -45.8100  -16.2574 C   0  0  0  0  0  0  0  0  0  0  0  0
   -3.2395  -45.4178  -15.5021 C   0  0  0  0  0  0  0  0  0  0  0  0
   -2.5669  -46.4081  -14.5983 C   0  0  0  0  0  0  0  0  0  0  0  0
   -1.3317  -46.0160  -13.8430 C   0  0  0  0  0  0  0  0  0  0  0  0
   -0.7691  -44.6335  -13.9914 C   0  0  0  0  0  0  0  0  0  0  0  0
   -1.4416  -43.6431  -14.8952 C   0  0  0  0  0  0  0  0  0  0  0  0
   -2.6768  -44.0353  -15.6505 C   0  0  0  0  0  0  0  0  0  0  0  0
   -3.3494  -43.0449  -16.5543 C   0  0  0  0  0  0  0  0  0  0  0  0
    0.4428  -44.0414  -13.3351 N   0  0  0  0  0  0  0  0  0  0  0  0
    1.3915  -44.6858  -12.3682 C   0  0  0  0  0  0  0  0  0  0  0  0
    2.5181  -43.8203  -11.8870 O   0  0  0  0  0  0  0  0  0  0  0  0
    1.3624  -46.0813  -11.8188 C   0  0  0  0  0  0  0  0  0  0  0  0
    0.3777  -47.1771  -12.1006 C   0  0  0  0  0  0  0  0  0  0  0  0
   -0.8214  -47.1480  -13.0015 N   0  0  0  0  0  0  0  0  0  0  0  0
    0.6245  -48.4733  -11.3874 C   0  0  0  0  0  0  0  0  0  0  0  0
    1.1167  -48.6247   -9.9786 C   0  0  0  0  0  0  0  0  0  0  0  0
    1.2189  -50.0908   -9.6782 C   0  0  0  0  0  0  0  0  0  0  0  0
    0.7897  -50.8455  -10.9014 C   0  0  0  0  0  0  0  0  0  0  0  0
    0.4224  -49.8459  -11.9577 S   0  0  0  0  0  0  0  0  0  0  0  0
    0.7463  -42.6168  -13.6930 C   0  0  0  0  0  0  0  0  0  0  0  0
    1.7490  -42.3102  -14.7657 C   0  0  0  0  0  0  0  0  0  0  0  0
    2.1593  -40.8910  -15.0254 O   0  0  0  0  0  0  0  0  0  0  0  0
    2.3413  -43.4230  -15.5787 N   0  0  0  0  0  0  0  0  0  0  0  0
    3.3440  -43.1164  -16.6514 C   0  0  0  0  0  0  0  0  0  0  0  0
    3.1196  -41.9596  -17.5794 C   0  0  0  0  0  0  0  0  0  0  0  0
    4.1222  -41.6530  -18.6521 C   0  0  0  0  0  0  0  0  0  0  0  0
    5.3495  -42.5034  -18.7967 C   0  0  0  0  0  0  0  0  0  0  0  0
    5.5739  -43.6603  -17.8687 C   0  0  0  0  0  0  0  0  0  0  0  0
    4.5712  -43.9668  -16.7960 C   0  0  0  0  0  0  0  0  0  0  0  0
    6.8677  -44.3163  -18.2503 C   0  0  0  0  0  0  0  0  0  0  0  0
    7.4429  -43.5650  -19.4142 C   0  0  0  0  0  0  0  0  0  0  0  0
    6.5045  -42.4445  -19.7519 C   0  0  0  0  0  0  0  0  0  0  0  0
  1  2  1  0  0  0
  2  3  2  0  0  0
  3  4  1  0  0  0
  4  5  2  0  0  0
  5  6  1  0  0  0
  6  7  2  0  0  0
  7  8  1  0  0  0
  5  9  1  0  0  0
  9 10  1  0  0  0
 10 11  2  0  0  0
 10 12  1  0  0  0
 12 13  2  0  0  0
 13 14  1  0  0  0
 13 15  1  0  0  0
 15 16  2  0  0  0
 16 17  1  0  0  0
 17 18  2  0  0  0
 18 19  1  0  0  0
  9 20  1  0  0  0
 20 21  1  0  0  0
 21 22  2  0  0  0
 21 23  1  0  0  0
 23 24  1  0  0  0
 24 25  2  0  0  0
 25 26  1  0  0  0
 26 27  2  0  0  0
 27 28  1  0  0  0
 28 29  2  0  0  0
 28 30  1  0  0  0
 30 31  1  0  0  0
 31 32  1  0  0  0
  7  2  1  0  0  0
 14  4  1  0  0  0
 19 15  1  0  0  0
 29 24  1  0  0  0
 32 27  1  0  0  0
M  END
> <minimizedAffinity>
6.29481

$$$$



 24 25  0  0  0  0  0  0  0  0999 V2000
    1.5562  -44.7677  -13.6800 C   0  0  0  0  0  0  0  0  0  0  0  0
    2.9562  -45.0979  -13.2545 O   0  0  0  0  0  0  0  0  0  0  0  0
    1.3226  -43.8770  -14.8641 N   0  0  0  0  0  0  0  0  0  0  0  0
    2.4890  -43.3164  -15.6226 N   0  0  0  0  0  0  0  0  0  0  0  0
    3.1758  -44.1484  -16.6647 C   0  0  0  0  0  0  0  0  0  0  0  0
    4.3422  -43.5879  -17.4232 C   0  0  0  0  0  0  0  0  0  0  0  0
    5.7307  -44.0743  -17.1306 C   0  0  0  0  0  0  0  0  0  0  0  0
    6.8971  -43.5137  -17.8891 C   0  0  0  0  0  0  0  0  0  0  0  0
    6.6750  -42.4667  -18.9401 C   0  0  0  0  0  0  0  0  0  0  0  0
    5.2865  -41.9803  -19.2326 C   0  0  0  0  0  0  0  0  0  0  0  0
    4.1201  -42.5409  -18.4741 C   0  0  0  0  0  0  0  0  0  0  0  0
    2.7316  -42.0545  -18.7666 O   0  0  0  0  0  0  0  0  0  0  0  0
    8.2856  -44.0001  -17.5967 Br  0  0  0  0  0  0  0  0  0  0  0  0
    0.3899  -45.3283  -12.9216 C   0  0  0  0  0  0  0  0  0  0  0  0
   -0.8087  -44.4694  -12.6466 O   0  0  0  0  0  0  0  0  0  0  0  0
   -3.5926  -41.6690  -17.1642 C   0  0  0  0  0  0  0  0  0  0  0  0
   -2.8966  -42.3691  -16.0348 C   0  0  0  0  0  0  0  0  0  0  0  0
   -3.1259  -43.8336  -15.8052 C   0  0  0  0  0  0  0  0  0  0  0  0
   -2.4299  -44.5337  -14.6758 C   0  0  0  0  0  0  0  0  0  0  0  0
   -1.5047  -43.7693  -13.7760 C   0  0  0  0  0  0  0  0  0  0  0  0
   -1.2754  -42.3048  -14.0056 C   0  0  0  0  0  0  0  0  0  0  0  0
   -1.9714  -41.6048  -15.1350 C   0  0  0  0  0  0  0  0  0  0  0  0
   -0.3501  -41.5404  -13.1058 Br  0  0  0  0  0  0  0  0  0  0  0  0
   -2.6592  -45.9982  -14.4462 C   0  0  0  0  0  0  0  0  0  0  0  0
 16 17  1  0  0  0
 17 18  2  0  0  0
 18 19  1  0  0  0
 19 20  2  0  0  0
 20 21  1  0  0  0
 21 22  2  0  0  0
 21 23  1  0  0  0
 20 15  1  0  0  0
 15 14  1  0  0  0
 14  1  1  0  0  0
  1  2  2  0  0  0
  1  3  1  0  0  0
  3  4  1  0  0  0
  4  5  2  0  0  0
  5  6  1  0  0  0
  6  7  2  0  0  0
  7  8  1  0  0  0
  8  9  2  0  0  0
  9 10  1  0  0  0
 10 11  2  0  0  0
 11 12  1  0  0  0
  8 13  1  0  0  0
 19 24  1  0  0  0
 22 17  1  0  0  0
 11  6  1  0  0  0
M  END
> <minimizedAffinity>
-7.94987

$$$$



 33 37  0  0  0  0  0  0  0  0999 V2000
  -32.1784   36.0572   18.0207 N   0  0  0  0  0  0  0  0  0  0  0  0
  -30.9576   36.1248   17.1518 C   0  0  0  0  0  0  0  0  0  0  0  0
  -30.7801   37.2666   16.1954 C   0  0  0  0  0  0  0  0  0  0  0  0
  -31.8234   38.3408   16.1079 N   0  0  0  0  0  0  0  0  0  0  0  0
  -33.0442   38.2732   16.9768 C   0  0  0  0  0  0  0  0  0  0  0  0
  -33.2217   37.1314   17.9332 C   0  0  0  0  0  0  0  0  0  0  0  0
  -31.6458   39.4826   15.1514 C   0  0  0  0  0  0  0  0  0  0  0  0
  -32.6891   40.5569   15.0639 O   0  0  0  0  0  0  0  0  0  0  0  0
  -32.3561   34.9154   18.9772 S   0  0  0  0  0  0  0  0  0  0  0  0
  -30.8715   34.7013   18.9972 O   0  0  0  0  0  0  0  0  0  0  0  0
  -33.8405   35.1295   18.9571 O   0  0  0  0  0  0  0  0  0  0  0  0
  -32.8886   31.4901   21.8465 C   0  0  0  0  0  0  0  0  0  0  0  0
  -34.0812   32.2740   21.3847 C   0  0  0  0  0  0  0  0  0  0  0  0
  -33.9037   33.4158   20.4283 C   0  0  0  0  0  0  0  0  0  0  0  0
  -32.5336   33.7736   19.9336 C   0  0  0  0  0  0  0  0  0  0  0  0
  -31.3410   32.9897   20.3954 C   0  0  0  0  0  0  0  0  0  0  0  0
  -31.5185   31.8479   21.3519 C   0  0  0  0  0  0  0  0  0  0  0  0
  -30.4250   39.5502   14.2825 C   0  0  0  0  0  0  0  0  0  0  0  0
  -29.2017   40.2734   14.7626 N   0  0  0  0  0  0  0  0  0  0  0  0
  -27.8238   40.1571   14.1814 C   0  0  0  0  0  0  0  0  0  0  0  0
  -27.4272   39.2972   13.0181 O   0  0  0  0  0  0  0  0  0  0  0  0
  -26.9119   41.0517   14.9678 C   0  0  0  0  0  0  0  0  0  0  0  0
  -26.0975   40.3825   13.9006 C   0  0  0  0  0  0  0  0  0  0  0  0
  -24.6824   40.8635   14.0274 C   0  0  0  0  0  0  0  0  0  0  0  0
  -24.6222   41.8299   15.1730 C   0  0  0  0  0  0  0  0  0  0  0  0
  -26.0002   41.9462   15.7542 C   0  0  0  0  0  0  0  0  0  0  0  0
  -26.2466   42.8517   16.9244 C   0  0  0  0  0  0  0  0  0  0  0  0
  -25.1152   43.6408   17.5134 C   0  0  0  0  0  0  0  0  0  0  0  0
  -23.7372   43.5245   16.9322 C   0  0  0  0  0  0  0  0  0  0  0  0
  -23.4908   42.6191   15.7620 C   0  0  0  0  0  0  0  0  0  0  0  0
  -27.7264   41.7209   16.0350 N   0  0  0  0  0  0  0  0  0  0  0  0
  -29.1415   41.2398   15.9082 C   0  0  0  0  0  0  0  0  0  0  0  0
  -30.2941   41.6528   16.7748 O   0  0  0  0  0  0  0  0  0  0  0  0
 12 13  2  0  0  0
 13 14  1  0  0  0
 14 15  2  0  0  0
 15 16  1  0  0  0
 16 17  2  0  0  0
 15  9  1  0  0  0
  9 10  2  0  0  0
  9 11  2  0  0  0
  9  1  1  0  0  0
  1  2  1  0  0  0
  2  3  1  0  0  0
  3  4  1  0  0  0
  4  5  1  0  0  0
  5  6  1  0  0  0
  4  7  1  0  0  0
  7  8  2  0  0  0
  7 18  1  0  0  0
 18 19  1  0  0  0
 19 20  1  0  0  0
 20 21  2  0  0  0
 20 22  1  0  0  0
 22 23  1  0  0  0
 23 24  1  0  0  0
 24 25  1  0  0  0
 25 26  2  0  0  0
 26 27  1  0  0  0
 27 28  2  0  0  0
 28 29  1  0  0  0
 29 30  2  0  0  0
 22 31  1  0  0  0
 31 32  1  0  0  0
 32 33  2  0  0  0
 17 12  1  0  0  0
  6  1  1  0  0  0
 32 19  1  0  0  0
 26 22  1  0  0  0
 30 25  1  0  0  0
M  END
> <minimizedAffinity>
-5.86397

$$$$



 34 38  0  0  0  0  0  0  0  0999 V2000
  -27.4202   40.3353   13.9715 N   0  0  0  0  0  0  0  0  0  0  0  0
  -26.2506   41.0014   14.6336 S   0  0  0  0  0  0  0  0  0  0  0  0
  -25.3981   40.6922   13.4389 O   0  0  0  0  0  0  0  0  0  0  0  0
  -27.1032   41.3106   15.8284 O   0  0  0  0  0  0  0  0  0  0  0  0
  -21.5724   43.6659   17.2823 C   0  0  0  0  0  0  0  0  0  0  0  0
  -22.7420   42.9998   16.6201 C   0  0  0  0  0  0  0  0  0  0  0  0
  -23.8032   43.8297   15.9606 C   0  0  0  0  0  0  0  0  0  0  0  0
  -24.9728   43.1636   15.2985 C   0  0  0  0  0  0  0  0  0  0  0  0
  -25.0811   41.6675   15.2958 C   0  0  0  0  0  0  0  0  0  0  0  0
  -24.0198   40.8375   15.9552 C   0  0  0  0  0  0  0  0  0  0  0  0
  -22.8503   41.5037   16.6174 C   0  0  0  0  0  0  0  0  0  0  0  0
  -27.2050   39.4615   12.7714 C   0  0  0  0  0  0  0  0  0  0  0  0
  -27.5398   38.0009   12.8375 C   0  0  0  0  0  0  0  0  0  0  0  0
  -26.8790   37.1255   13.8607 C   0  0  0  0  0  0  0  0  0  0  0  0
  -27.2138   35.6648   13.9267 C   0  0  0  0  0  0  0  0  0  0  0  0
  -26.5530   34.7895   14.9499 C   0  0  0  0  0  0  0  0  0  0  0  0
  -26.8878   33.3287   15.0160 C   0  0  0  0  0  0  0  0  0  0  0  0
  -27.8835   32.7435   14.0589 C   0  0  0  0  0  0  0  0  0  0  0  0
  -28.5443   33.6189   13.0356 C   0  0  0  0  0  0  0  0  0  0  0  0
  -28.2095   35.0796   12.9696 C   0  0  0  0  0  0  0  0  0  0  0  0
  -28.8703   35.9550   11.9464 N   0  0  0  0  0  0  0  0  0  0  0  0
  -28.5355   37.4157   11.8803 C   0  0  0  0  0  0  0  0  0  0  0  0
  -29.1963   38.2910   10.8571 O   0  0  0  0  0  0  0  0  0  0  0  0
  -28.2183   31.2829   14.1249 O   0  0  0  0  0  0  0  0  0  0  0  0
  -27.5575   30.4075   15.1481 C   0  0  0  0  0  0  0  0  0  0  0  0
  -26.5618   30.9927   16.1053 C   0  0  0  0  0  0  0  0  0  0  0  0
  -26.2270   32.4534   16.0392 O   0  0  0  0  0  0  0  0  0  0  0  0
  -28.8050   40.5431   14.5094 C   0  0  0  0  0  0  0  0  0  0  0  0
  -29.9919   40.3855   13.6059 C   0  0  0  0  0  0  0  0  0  0  0  0
  -31.0377   39.3553   13.9143 C   0  0  0  0  0  0  0  0  0  0  0  0
  -32.2247   39.1977   13.0108 O   0  0  0  0  0  0  0  0  0  0  0  0
  -32.3659   40.0705   11.7990 C   0  0  0  0  0  0  0  0  0  0  0  0
  -31.3201   41.1007   11.4907 C   0  0  0  0  0  0  0  0  0  0  0  0
  -30.1332   41.2582   12.3941 O   0  0  0  0  0  0  0  0  0  0  0  0
  5  6  1  0  0  0
  6  7  2  0  0  0
  7  8  1  0  0  0
  8  9  2  0  0  0
  9 10  1  0  0  0
 10 11  2  0  0  0
  9  2  1  0  0  0
  2  3  2  0  0  0
  2  4  2  0  0  0
  2  1  1  0  0  0
  1 12  1  0  0  0
 12 13  1  0  0  0
 13 14  2  0  0  0
 14 15  1  0  0  0
 15 16  2  0  0  0
 16 17  1  0  0  0
 17 18  2  0  0  0
 18 19  1  0  0  0
 19 20  2  0  0  0
 20 21  1  0  0  0
 21 22  1  0  0  0
 22 23  2  0  0  0
 18 24  1  0  0  0
 24 25  1  0  0  0
 25 26  1  0  0  0
 26 27  1  0  0  0
  1 28  1  0  0  0
 29 28  1  0  0  0
 29 30  1  0  0  0
 30 31  1  0  0  0
 31 32  1  0  0  0
 32 33  1  0  0  0
 33 34  1  0  0  0
 11  6  1  0  0  0
 22 13  1  0  0  0
 20 15  1  0  0  0
 27 17  1  0  0  0
 34 29  1  0  0  0
M  END
> <minimizedAffinity>
-6.77865

$$$$



 32 35  0  0  0  0  0  0  0  0999 V2000
  -31.0693   39.1576   12.7405 C   0  0  0  0  0  0  0  0  0  0  0  0
  -32.4147   39.0324   12.0892 O   0  0  0  0  0  0  0  0  0  0  0  0
  -30.3285   37.9274   13.1740 C   0  0  0  0  0  0  0  0  0  0  0  0
  -30.5826   37.3375   14.5295 C   0  0  0  0  0  0  0  0  0  0  0  0
  -29.8418   36.1073   14.9629 C   0  0  0  0  0  0  0  0  0  0  0  0
  -28.8468   35.4671   14.0408 C   0  0  0  0  0  0  0  0  0  0  0  0
  -28.5927   36.0571   12.6854 C   0  0  0  0  0  0  0  0  0  0  0  0
  -29.3335   37.2872   12.2519 C   0  0  0  0  0  0  0  0  0  0  0  0
  -28.1060   34.2369   14.4743 S   0  0  0  0  0  0  0  0  0  0  0  0
  -26.9756   35.0911   14.9667 O   0  0  0  0  0  0  0  0  0  0  0  0
  -29.2364   33.3827   13.9819 O   0  0  0  0  0  0  0  0  0  0  0  0
  -27.3652   33.0068   14.9077 N   0  0  0  0  0  0  0  0  0  0  0  0
  -27.3971   31.7727   14.0555 C   0  0  0  0  0  0  0  0  0  0  0  0
  -26.6563   30.5426   14.4889 C   0  0  0  0  0  0  0  0  0  0  0  0
  -25.8836   30.5463   15.7746 O   0  0  0  0  0  0  0  0  0  0  0  0
  -25.8517   31.7803   16.6268 C   0  0  0  0  0  0  0  0  0  0  0  0
  -26.5925   33.0105   16.1934 C   0  0  0  0  0  0  0  0  0  0  0  0
  -30.4648   40.5129   12.9584 C   0  0  0  0  0  0  0  0  0  0  0  0
  -26.8599   41.1661   16.8340 C   0  0  0  0  0  0  0  0  0  0  0  0
  -27.6211   40.8695   15.5761 C   0  0  0  0  0  0  0  0  0  0  0  0
  -28.1038   40.4767   14.2113 C   0  0  0  0  0  0  0  0  0  0  0  0
  -27.2622   39.9048   13.1092 O   0  0  0  0  0  0  0  0  0  0  0  0
  -29.5759   40.7563   14.1419 N   0  0  0  0  0  0  0  0  0  0  0  0
  -30.0031   41.3219   15.4639 C   0  0  0  0  0  0  0  0  0  0  0  0
  -31.3941   41.7435   15.8345 O   0  0  0  0  0  0  0  0  0  0  0  0
  -28.7950   41.3919   16.3503 N   0  0  0  0  0  0  0  0  0  0  0  0
  -26.2882   40.4092   15.0649 C   0  0  0  0  0  0  0  0  0  0  0  0
  -25.8992   38.9650   15.1790 C   0  0  0  0  0  0  0  0  0  0  0  0
  -24.5663   38.5047   14.6678 C   0  0  0  0  0  0  0  0  0  0  0  0
  -23.6223   39.4886   14.0425 C   0  0  0  0  0  0  0  0  0  0  0  0
  -24.0112   40.9327   13.9284 C   0  0  0  0  0  0  0  0  0  0  0  0
  -25.3442   41.3931   14.4396 C   0  0  0  0  0  0  0  0  0  0  0  0
 20 19  1  0  0  0
 20 21  1  0  0  0
 21 22  2  0  0  0
 21 23  1  0  0  0
 23 24  1  0  0  0
 24 25  2  0  0  0
 24 26  1  0  0  0
 23 18  1  0  0  0
 18  1  1  0  0  0
  1  2  2  0  0  0
  1  3  1  0  0  0
  3  4  2  0  0  0
  4  5  1  0  0  0
  5  6  2  0  0  0
  6  7  1  0  0  0
  7  8  2  0  0  0
  6  9  1  0  0  0
  9 10  2  0  0  0
  9 11  2  0  0  0
  9 12  1  0  0  0
 12 13  1  0  0  0
 13 14  1  0  0  0
 14 15  1  0  0  0
 15 16  1  0  0  0
 16 17  1  0  0  0
 20 27  1  0  0  0
 27 28  2  0  0  0
 28 29  1  0  0  0
 29 30  2  0  0  0
 30 31  1  0  0  0
 31 32  2  0  0  0
 26 20  1  0  0  0
  8  3  1  0  0  0
 17 12  1  0  0  0
 32 27  1  0  0  0
M  END
> <minimizedAffinity>
-5.58825

$$$$



 32 35  0  0  0  0  0  0  0  0999 V2000
  -28.7331   35.8490   14.7868 N   0  0  0  0  0  0  0  0  0  0  0  0
  -27.7618   34.7366   15.0501 C   0  0  0  0  0  0  0  0  0  0  0  0
  -26.5396   34.9893   15.8821 C   0  0  0  0  0  0  0  0  0  0  0  0
  -25.5685   33.8768   16.1454 C   0  0  0  0  0  0  0  0  0  0  0  0
  -25.8196   32.5117   15.5767 C   0  0  0  0  0  0  0  0  0  0  0  0
  -27.0418   32.2590   14.7448 C   0  0  0  0  0  0  0  0  0  0  0  0
  -28.0130   33.3715   14.4815 C   0  0  0  0  0  0  0  0  0  0  0  0
  -29.2353   33.1188   13.6495 O   0  0  0  0  0  0  0  0  0  0  0  0
  -30.2064   34.2312   13.3862 C   0  0  0  0  0  0  0  0  0  0  0  0
  -29.9553   35.5963   13.9549 C   0  0  0  0  0  0  0  0  0  0  0  0
  -30.9265   36.7088   13.6915 O   0  0  0  0  0  0  0  0  0  0  0  0
  -24.3461   34.1295   16.9774 S   0  0  0  0  0  0  0  0  0  0  0  0
  -24.4504   32.7472   17.5503 O   0  0  0  0  0  0  0  0  0  0  0  0
  -24.2418   35.5118   16.4044 O   0  0  0  0  0  0  0  0  0  0  0  0
  -23.1239   34.3821   17.8093 N   0  0  0  0  0  0  0  0  0  0  0  0
  -23.2036   34.2961   19.3048 C   0  0  0  0  0  0  0  0  0  0  0  0
  -21.9812   34.5487   20.1367 C   0  0  0  0  0  0  0  0  0  0  0  0
  -20.6792   34.8873   19.4733 O   0  0  0  0  0  0  0  0  0  0  0  0
  -20.5995   34.9733   17.9779 C   0  0  0  0  0  0  0  0  0  0  0  0
  -21.8218   34.7207   17.1459 C   0  0  0  0  0  0  0  0  0  0  0  0
  -28.4819   37.2142   15.3555 C   0  0  0  0  0  0  0  0  0  0  0  0
  -26.2226   38.0360   14.3706 N   0  0  0  0  0  0  0  0  0  0  0  0
  -27.6978   38.2219   14.5684 C   0  0  0  0  0  0  0  0  0  0  0  0
  -28.3890   39.4157   13.9789 O   0  0  0  0  0  0  0  0  0  0  0  0
  -25.4385   39.0438   13.5835 C   0  0  0  0  0  0  0  0  0  0  0  0
  -23.0875   43.8292   16.3354 C   0  0  0  0  0  0  0  0  0  0  0  0
  -23.6753   42.6329   15.6474 C   0  0  0  0  0  0  0  0  0  0  0  0
  -22.8521   41.3921   15.4666 C   0  0  0  0  0  0  0  0  0  0  0  0
  -23.4399   40.1957   14.7786 C   0  0  0  0  0  0  0  0  0  0  0  0
  -24.8508   40.2402   14.2714 C   0  0  0  0  0  0  0  0  0  0  0  0
  -25.6740   41.4810   14.4522 C   0  0  0  0  0  0  0  0  0  0  0  0
  -25.0863   42.6774   15.1402 C   0  0  0  0  0  0  0  0  0  0  0  0
 26 27  1  0  0  0
 27 28  2  0  0  0
 28 29  1  0  0  0
 29 30  2  0  0  0
 30 31  1  0  0  0
 31 32  2  0  0  0
 30 25  1  0  0  0
 25 22  1  0  0  0
 22 23  1  0  0  0
 23 24  2  0  0  0
 23 21  1  0  0  0
 21  1  1  0  0  0
  1  2  1  0  0  0
  2  3  2  0  0  0
  3  4  1  0  0  0
  4  5  2  0  0  0
  5  6  1  0  0  0
  6  7  2  0  0  0
  7  8  1  0  0  0
  8  9  1  0  0  0
  9 10  1  0  0  0
 10 11  2  0  0  0
  4 12  1  0  0  0
 12 13  2  0  0  0
 12 14  2  0  0  0
 12 15  1  0  0  0
 15 16  1  0  0  0
 16 17  1  0  0  0
 17 18  1  0  0  0
 18 19  1  0  0  0
 19 20  1  0  0  0
 32 27  1  0  0  0
 10  1  1  0  0  0
  7  2  1  0  0  0
 20 15  1  0  0  0
M  END
> <minimizedAffinity>
-6.08048

$$$$



 34 38  0  0  0  0  0  0  0  0999 V2000
  -24.4034   39.8588   13.3162 C   0  0  0  0  0  0  0  0  0  0  0  0
  -25.7221   40.3510   13.8346 C   0  0  0  0  0  0  0  0  0  0  0  0
  -26.2924   39.3053   12.9230 C   0  0  0  0  0  0  0  0  0  0  0  0
  -25.5065   38.3791   12.0429 O   0  0  0  0  0  0  0  0  0  0  0  0
  -27.7868   39.3483   13.0459 N   0  0  0  0  0  0  0  0  0  0  0  0
  -28.1399   40.4207   14.0336 C   0  0  0  0  0  0  0  0  0  0  0  0
  -29.5258   40.8057   14.4590 O   0  0  0  0  0  0  0  0  0  0  0  0
  -26.8638   41.0404   14.5210 N   0  0  0  0  0  0  0  0  0  0  0  0
  -24.8759   41.2938   14.6378 C   0  0  0  0  0  0  0  0  0  0  0  0
  -25.2752   42.7338   14.7688 C   0  0  0  0  0  0  0  0  0  0  0  0
  -24.4291   43.6767   15.5720 C   0  0  0  0  0  0  0  0  0  0  0  0
  -23.1837   43.1795   16.2443 C   0  0  0  0  0  0  0  0  0  0  0  0
  -22.7845   41.7397   16.1133 C   0  0  0  0  0  0  0  0  0  0  0  0
  -23.6305   40.7968   15.3101 C   0  0  0  0  0  0  0  0  0  0  0  0
  -21.5915   41.0430   16.6977 O   0  0  0  0  0  0  0  0  0  0  0  0
  -20.5030   41.6144   17.5574 C   0  0  0  0  0  0  0  0  0  0  0  0
  -20.3389   43.0234   18.0449 C   0  0  0  0  0  0  0  0  0  0  0  0
  -21.2225   44.2091   17.7933 C   0  0  0  0  0  0  0  0  0  0  0  0
  -22.4886   44.2786   16.9919 O   0  0  0  0  0  0  0  0  0  0  0  0
  -28.7576   38.4727   12.3104 C   0  0  0  0  0  0  0  0  0  0  0  0
  -29.5771   37.4657   13.0614 C   0  0  0  0  0  0  0  0  0  0  0  0
  -30.9932   37.7836   13.4403 O   0  0  0  0  0  0  0  0  0  0  0  0
  -28.9806   36.1407   13.4335 C   0  0  0  0  0  0  0  0  0  0  0  0
  -29.5495   34.8753   12.8633 C   0  0  0  0  0  0  0  0  0  0  0  0
  -28.9531   33.5503   13.2354 C   0  0  0  0  0  0  0  0  0  0  0  0
  -27.7876   33.4906   14.1777 C   0  0  0  0  0  0  0  0  0  0  0  0
  -27.2186   34.7559   14.7480 C   0  0  0  0  0  0  0  0  0  0  0  0
  -27.8151   36.0809   14.3759 C   0  0  0  0  0  0  0  0  0  0  0  0
  -26.0531   34.6962   15.6904 N   0  0  0  0  0  0  0  0  0  0  0  0
  -25.6106   33.4936   16.4702 C   0  0  0  0  0  0  0  0  0  0  0  0
  -24.4095   33.8826   17.2802 C   0  0  0  0  0  0  0  0  0  0  0  0
  -24.1097   35.3256   17.0010 C   0  0  0  0  0  0  0  0  0  0  0  0
  -25.1255   35.8284   16.0184 C   0  0  0  0  0  0  0  0  0  0  0  0
  -25.2006   37.2193   15.4617 O   0  0  0  0  0  0  0  0  0  0  0  0
  2  1  1  0  0  0
  2  3  1  0  0  0
  3  4  2  0  0  0
  3  5  1  0  0  0
  5  6  1  0  0  0
  6  7  2  0  0  0
  6  8  1  0  0  0
  5 20  1  0  0  0
 20 21  1  0  0  0
 21 22  2  0  0  0
 21 23  1  0  0  0
 23 24  2  0  0  0
 24 25  1  0  0  0
 25 26  2  0  0  0
 26 27  1  0  0  0
 27 28  2  0  0  0
 27 29  1  0  0  0
 29 30  1  0  0  0
 30 31  1  0  0  0
 31 32  1  0  0  0
 32 33  1  0  0  0
 33 34  2  0  0  0
  2  9  1  0  0  0
  9 10  2  0  0  0
 10 11  1  0  0  0
 11 12  2  0  0  0
 12 13  1  0  0  0
 13 14  2  0  0  0
 13 15  1  0  0  0
 15 16  1  0  0  0
 16 17  1  0  0  0
 17 18  1  0  0  0
 18 19  1  0  0  0
  8  2  1  0  0  0
 28 23  1  0  0  0
 33 29  1  0  0  0
 14  9  1  0  0  0
 19 12  1  0  0  0
M  END
> <minimizedAffinity>
-6.95694

$$$$



 32 35  0  0  0  0  0  0  0  0999 V2000
  -29.7029   36.0337   14.0005 C   0  0  0  0  0  0  0  0  0  0  0  0
  -28.6265   36.4706   13.0515 C   0  0  0  0  0  0  0  0  0  0  0  0
  -27.3374   35.7502   12.7883 O   0  0  0  0  0  0  0  0  0  0  0  0
  -29.0656   37.7543   12.4118 N   0  0  0  0  0  0  0  0  0  0  0  0
  -30.4133   38.1109   12.9654 C   0  0  0  0  0  0  0  0  0  0  0  0
  -31.2247   39.3188   12.6011 O   0  0  0  0  0  0  0  0  0  0  0  0
  -30.8072   37.0475   13.9473 N   0  0  0  0  0  0  0  0  0  0  0  0
  -28.7834   34.8781   14.2636 C   0  0  0  0  0  0  0  0  0  0  0  0
  -28.8646   33.6461   13.4116 C   0  0  0  0  0  0  0  0  0  0  0  0
  -27.9451   32.4906   13.6747 C   0  0  0  0  0  0  0  0  0  0  0  0
  -26.9445   32.5670   14.7897 C   0  0  0  0  0  0  0  0  0  0  0  0
  -26.8634   33.7989   15.6415 C   0  0  0  0  0  0  0  0  0  0  0  0
  -27.7829   34.9546   15.3785 C   0  0  0  0  0  0  0  0  0  0  0  0
  -26.0250   31.4113   15.0528 Cl  0  0  0  0  0  0  0  0  0  0  0  0
  -31.1446   36.1331   16.1595 C   0  0  0  0  0  0  0  0  0  0  0  0
  -30.5870   35.3553   15.0045 C   0  0  0  0  0  0  0  0  0  0  0  0
  -28.2926   38.5431   11.3966 C   0  0  0  0  0  0  0  0  0  0  0  0
  -26.8740   38.9409   11.6777 C   0  0  0  0  0  0  0  0  0  0  0  0
  -25.7783   38.5221   10.7428 O   0  0  0  0  0  0  0  0  0  0  0  0
  -26.5509   39.7576   12.8937 N   0  0  0  0  0  0  0  0  0  0  0  0
  -25.1322   40.1555   13.1748 C   0  0  0  0  0  0  0  0  0  0  0  0
  -24.8092   40.9721   14.3908 C   0  0  0  0  0  0  0  0  0  0  0  0
  -25.9049   41.3910   15.3257 N   0  0  0  0  0  0  0  0  0  0  0  0
  -27.3236   40.9932   15.0446 C   0  0  0  0  0  0  0  0  0  0  0  0
  -27.6466   40.1765   13.8287 C   0  0  0  0  0  0  0  0  0  0  0  0
  -25.5818   42.2077   16.5418 C   0  0  0  0  0  0  0  0  0  0  0  0
  -26.6775   42.6265   17.4767 O   0  0  0  0  0  0  0  0  0  0  0  0
  -24.1632   42.6055   16.8228 C   0  0  0  0  0  0  0  0  0  0  0  0
  -23.5413   43.9339   16.5089 C   0  0  0  0  0  0  0  0  0  0  0  0
  -22.1111   43.8942   16.9592 C   0  0  0  0  0  0  0  0  0  0  0  0
  -21.8489   42.5412   17.5515 C   0  0  0  0  0  0  0  0  0  0  0  0
  -23.1172   41.7448   17.4672 O   0  0  0  0  0  0  0  0  0  0  0  0
 15 16  1  0  0  0
  1 16  1  0  0  0
  1  2  1  0  0  0
  2  3  2  0  0  0
  2  4  1  0  0  0
  4  5  1  0  0  0
  5  6  2  0  0  0
  5  7  1  0  0  0
  4 17  1  0  0  0
 17 18  1  0  0  0
 18 19  2  0  0  0
 18 20  1  0  0  0
 20 21  1  0  0  0
 21 22  1  0  0  0
 22 23  1  0  0  0
 23 24  1  0  0  0
 24 25  1  0  0  0
 23 26  1  0  0  0
 26 27  2  0  0  0
 26 28  1  0  0  0
 28 29  2  0  0  0
 29 30  1  0  0  0
 30 31  2  0  0  0
 31 32  1  0  0  0
  1  8  1  0  0  0
  8  9  2  0  0  0
  9 10  1  0  0  0
 10 11  2  0  0  0
 11 12  1  0  0  0
 12 13  2  0  0  0
 11 14  1  0  0  0
  7  1  1  0  0  0
 25 20  1  0  0  0
 32 28  1  0  0  0
 13  8  1  0  0  0
M  END
> <minimizedAffinity>
-5.94049

$$$$



 35 39  0  0  0  0  0  0  0  0999 V2000
  -26.4900   39.3015   11.6244 C   0  0  0  0  0  0  0  0  0  0  0  0
  -27.3396   39.6666   12.8055 N   0  0  0  0  0  0  0  0  0  0  0  0
  -28.7977   39.3564   12.9723 C   0  0  0  0  0  0  0  0  0  0  0  0
  -29.2395   39.9041   14.2970 C   0  0  0  0  0  0  0  0  0  0  0  0
  -28.0545   40.5528   14.9489 C   0  0  0  0  0  0  0  0  0  0  0  0
  -26.8803   40.4060   14.0271 C   0  0  0  0  0  0  0  0  0  0  0  0
  -25.5446   40.9646   14.4192 C   0  0  0  0  0  0  0  0  0  0  0  0
  -24.3703   40.8178   13.4974 O   0  0  0  0  0  0  0  0  0  0  0  0
  -25.3831   41.6700   15.7331 N   0  0  0  0  0  0  0  0  0  0  0  0
  -26.5572   41.8168   16.6549 C   0  0  0  0  0  0  0  0  0  0  0  0
  -26.3957   42.5222   17.9688 O   0  0  0  0  0  0  0  0  0  0  0  0
  -27.8929   41.2582   16.2628 N   0  0  0  0  0  0  0  0  0  0  0  0
  -30.6234   39.8182   14.8693 C   0  0  0  0  0  0  0  0  0  0  0  0
  -31.6508   40.8485   14.5052 O   0  0  0  0  0  0  0  0  0  0  0  0
  -30.9798   38.7019   15.8058 N   0  0  0  0  0  0  0  0  0  0  0  0
  -29.9523   37.6716   16.1700 C   0  0  0  0  0  0  0  0  0  0  0  0
  -30.3086   36.5554   17.1064 C   0  0  0  0  0  0  0  0  0  0  0  0
  -31.6925   36.4694   17.6787 N   0  0  0  0  0  0  0  0  0  0  0  0
  -32.7200   37.4998   17.3145 C   0  0  0  0  0  0  0  0  0  0  0  0
  -32.3636   38.6160   16.3780 C   0  0  0  0  0  0  0  0  0  0  0  0
  -32.0489   35.3532   18.6152 C   0  0  0  0  0  0  0  0  0  0  0  0
  -33.4877   34.9954   18.8425 C   0  0  0  0  0  0  0  0  0  0  0  0
  -33.8441   33.8791   19.7789 C   0  0  0  0  0  0  0  0  0  0  0  0
  -32.7615   33.1206   20.4881 C   0  0  0  0  0  0  0  0  0  0  0  0
  -31.3227   33.4784   20.2609 C   0  0  0  0  0  0  0  0  0  0  0  0
  -30.9663   34.5947   19.3244 C   0  0  0  0  0  0  0  0  0  0  0  0
  -33.1179   32.0043   21.4246 O   0  0  0  0  0  0  0  0  0  0  0  0
  -34.4671   31.9769   22.0798 C   0  0  0  0  0  0  0  0  0  0  0  0
  -24.0472   42.2286   16.1252 C   0  0  0  0  0  0  0  0  0  0  0  0
  -23.8429   43.7135   16.1826 C   0  0  0  0  0  0  0  0  0  0  0  0
  -22.5071   44.2721   16.5747 C   0  0  0  0  0  0  0  0  0  0  0  0
  -21.3757   43.3458   16.9094 C   0  0  0  0  0  0  0  0  0  0  0  0
  -21.5801   41.8609   16.8519 C   0  0  0  0  0  0  0  0  0  0  0  0
  -22.9159   41.3023   16.4599 C   0  0  0  0  0  0  0  0  0  0  0  0
  -20.0400   43.9045   17.3014 F   0  0  0  0  0  0  0  0  0  0  0  0
  1  2  1  0  0  0
  2  3  1  0  0  0
  3  4  2  0  0  0
  4  5  1  0  0  0
  5  6  2  0  0  0
  6  7  1  0  0  0
  7  8  2  0  0  0
  7  9  1  0  0  0
  9 10  1  0  0  0
 10 11  2  0  0  0
 10 12  1  0  0  0
  9 29  1  0  0  0
 29 30  2  0  0  0
 30 31  1  0  0  0
 31 32  2  0  0  0
 32 33  1  0  0  0
 33 34  2  0  0  0
 32 35  1  0  0  0
  4 13  1  0  0  0
 13 14  2  0  0  0
 13 15  1  0  0  0
 15 16  1  0  0  0
 16 17  1  0  0  0
 17 18  1  0  0  0
 18 19  1  0  0  0
 19 20  1  0  0  0
 18 21  1  0  0  0
 21 22  2  0  0  0
 22 23  1  0  0  0
 23 24  2  0  0  0
 24 25  1  0  0  0
 25 26  2  0  0  0
 24 27  1  0  0  0
 27 28  1  0  0  0
  6  2  1  0  0  0
 12  5  1  0  0  0
 34 29  1  0  0  0
 20 15  1  0  0  0
 26 21  1  0  0  0
M  END
> <minimizedAffinity>
-5.87126

$$$$



 33 36  0  0  0  0  0  0  0  0999 V2000
  -24.9642   33.0954   16.5162 C   0  0  0  0  0  0  0  0  0  0  0  0
  -23.5492   33.5767   16.6431 N   0  0  0  0  0  0  0  0  0  0  0  0
  -23.5845   35.0455   16.9455 N   0  0  0  0  0  0  0  0  0  0  0  0
  -25.0214   35.4720   17.0054 C   0  0  0  0  0  0  0  0  0  0  0  0
  -25.8741   34.2667   16.7401 S   0  0  0  0  0  0  0  0  0  0  0  0
  -24.1688   36.6772   17.2708 C   0  0  0  0  0  0  0  0  0  0  0  0
  -22.6814   36.8594   17.3374 C   0  0  0  0  0  0  0  0  0  0  0  0
  -22.1039   38.2129   17.6280 C   0  0  0  0  0  0  0  0  0  0  0  0
  -23.0138   39.3842   17.8519 C   0  0  0  0  0  0  0  0  0  0  0  0
  -24.5012   39.2020   17.7853 C   0  0  0  0  0  0  0  0  0  0  0  0
  -25.0786   37.8485   17.4947 C   0  0  0  0  0  0  0  0  0  0  0  0
  -26.4936   37.3672   17.3677 N   0  0  0  0  0  0  0  0  0  0  0  0
  -26.4583   35.8984   17.0654 C   0  0  0  0  0  0  0  0  0  0  0  0
  -27.6505   35.0117   16.8591 O   0  0  0  0  0  0  0  0  0  0  0  0
  -20.6165   38.3952   17.6947 Cl  0  0  0  0  0  0  0  0  0  0  0  0
  -22.3923   35.9322   17.1518 C   0  0  0  0  0  0  0  0  0  0  0  0
  -22.3001   36.7072   17.3135 O   0  0  0  0  0  0  0  0  0  0  0  0
  -21.0083   35.3612   17.0610 C   0  0  0  0  0  0  0  0  0  0  0  0
  -26.8887   30.0266   14.8949 C   0  0  0  0  0  0  0  0  0  0  0  0
  -26.4591   31.4324   15.1933 C   0  0  0  0  0  0  0  0  0  0  0  0
  -27.0945   32.5810   14.4674 O   0  0  0  0  0  0  0  0  0  0  0  0
  -25.3939   31.6897   16.2177 N   0  0  0  0  0  0  0  0  0  0  0  0
  -27.7274   38.2072   17.5170 C   0  0  0  0  0  0  0  0  0  0  0  0
  -28.2489   38.9883   16.3475 C   0  0  0  0  0  0  0  0  0  0  0  0
  -27.6253   38.8184   14.9939 O   0  0  0  0  0  0  0  0  0  0  0  0
  -26.3047   39.4617   14.6904 C   0  0  0  0  0  0  0  0  0  0  0  0
  -26.1253   40.9372   14.8914 C   0  0  0  0  0  0  0  0  0  0  0  0
  -24.8047   41.5805   14.5879 C   0  0  0  0  0  0  0  0  0  0  0  0
  -23.6633   40.7481   14.0834 C   0  0  0  0  0  0  0  0  0  0  0  0
  -23.8427   39.2726   13.8823 C   0  0  0  0  0  0  0  0  0  0  0  0
  -25.1634   38.6293   14.1858 C   0  0  0  0  0  0  0  0  0  0  0  0
  -25.3427   37.1537   13.9847 O   0  0  0  0  0  0  0  0  0  0  0  0
  -26.4731   36.6436   13.1409 C   0  0  0  0  0  0  0  0  0  0  0  0
 19 20  1  0  0  0
 20 21  2  0  0  0
 20 22  1  0  0  0
 22  1  1  0  0  0
  1  2  2  0  0  0
  2  3  1  0  0  0
  3  4  1  0  0  0
  4  5  1  0  0  0
  4  6  1  0  0  0
  6  7  2  0  0  0
  7  8  1  0  0  0
  8  9  2  0  0  0
  9 10  1  0  0  0
 10 11  2  0  0  0
 11 12  1  0  0  0
 12 13  1  0  0  0
 13 14  2  0  0  0
 12 23  1  0  0  0
 23 24  1  0  0  0
 24 25  1  0  0  0
 25 26  1  0  0  0
 26 27  2  0  0  0
 27 28  1  0  0  0
 28 29  2  0  0  0
 29 30  1  0  0  0
 30 31  2  0  0  0
 31 32  1  0  0  0
 32 33  1  0  0  0
  8 15  1  0  0  0
  3 16  1  0  0  0
 16 17  2  0  0  0
 16 18  1  0  0  0
  5  1  1  0  0  0
 13  4  1  0  0  0
 11  6  1  0  0  0
 31 26  1  0  0  0
M  END
> <minimizedAffinity>
-5.23479

$$$$



 32 34  0  0  0  0  0  0  0  0999 V2000
  -26.0184   39.7368   13.6581 C   0  0  0  0  0  0  0  0  0  0  0  0
  -25.3168   41.0623   13.6852 O   0  0  0  0  0  0  0  0  0  0  0  0
  -25.5116   38.6027   14.4989 N   0  0  0  0  0  0  0  0  0  0  0  0
  -26.2853   37.3215   14.3981 C   0  0  0  0  0  0  0  0  0  0  0  0
  -26.0366   36.0209   15.1029 C   0  0  0  0  0  0  0  0  0  0  0  0
  -24.9529   35.6803   16.0823 C   0  0  0  0  0  0  0  0  0  0  0  0
  -23.8501   36.5560   16.5991 N   0  0  0  0  0  0  0  0  0  0  0  0
  -23.5588   37.9888   16.2639 C   0  0  0  0  0  0  0  0  0  0  0  0
  -24.2983   38.8996   15.3292 C   0  0  0  0  0  0  0  0  0  0  0  0
  -29.7805   39.8169   12.3971 C   0  0  0  0  0  0  0  0  0  0  0  0
  -28.5722   40.0084   13.2651 C   0  0  0  0  0  0  0  0  0  0  0  0
  -27.2268   39.5454   12.7903 C   0  0  0  0  0  0  0  0  0  0  0  0
  -27.0897   38.8909   11.4475 C   0  0  0  0  0  0  0  0  0  0  0  0
  -28.2980   38.6995   10.5796 C   0  0  0  0  0  0  0  0  0  0  0  0
  -29.6434   39.1625   11.0544 C   0  0  0  0  0  0  0  0  0  0  0  0
  -31.1259   40.2800   12.8719 S   0  0  0  0  0  0  0  0  0  0  0  0
  -31.4717   38.8739   13.2635 O   0  0  0  0  0  0  0  0  0  0  0  0
  -30.7802   41.6861   12.4803 O   0  0  0  0  0  0  0  0  0  0  0  0
  -33.7030   40.3968   12.5635 C   0  0  0  0  0  0  0  0  0  0  0  0
  -32.4714   40.7430   13.3467 N   0  0  0  0  0  0  0  0  0  0  0  0
  -30.8518   38.9711   10.1865 O   0  0  0  0  0  0  0  0  0  0  0  0
  -31.0320   39.8100    8.9561 C   0  0  0  0  0  0  0  0  0  0  0  0
  -22.9151   35.9142   17.5807 S   0  0  0  0  0  0  0  0  0  0  0  0
  -22.8511   34.6885   16.7184 O   0  0  0  0  0  0  0  0  0  0  0  0
  -22.9791   37.1398   18.4431 O   0  0  0  0  0  0  0  0  0  0  0  0
  -21.9800   35.2723   18.5625 C   0  0  0  0  0  0  0  0  0  0  0  0
  -22.4471   34.9699   19.9555 C   0  0  0  0  0  0  0  0  0  0  0  0
  -21.5121   34.3280   20.9372 C   0  0  0  0  0  0  0  0  0  0  0  0
  -20.1101   33.9886   20.5259 C   0  0  0  0  0  0  0  0  0  0  0  0
  -19.6431   34.2910   19.1329 C   0  0  0  0  0  0  0  0  0  0  0  0
  -20.5780   34.9329   18.1512 C   0  0  0  0  0  0  0  0  0  0  0  0
  -19.1751   33.3467   21.5077 F   0  0  0  0  0  0  0  0  0  0  0  0
 19 20  1  0  0  0
 20 16  1  0  0  0
 16 17  2  0  0  0
 16 18  2  0  0  0
 16 10  1  0  0  0
 10 11  2  0  0  0
 11 12  1  0  0  0
 12 13  2  0  0  0
 13 14  1  0  0  0
 14 15  2  0  0  0
 15 21  1  0  0  0
 21 22  1  0  0  0
 12  1  1  0  0  0
  1  2  2  0  0  0
  1  3  1  0  0  0
  3  4  1  0  0  0
  4  5  1  0  0  0
  5  6  1  0  0  0
  6  7  1  0  0  0
  7  8  1  0  0  0
  8  9  1  0  0  0
  7 23  1  0  0  0
 23 24  2  0  0  0
 23 25  2  0  0  0
 23 26  1  0  0  0
 26 27  2  0  0  0
 27 28  1  0  0  0
 28 29  2  0  0  0
 29 30  1  0  0  0
 30 31  2  0  0  0
 29 32  1  0  0  0
 15 10  1  0  0  0
  9  3  1  0  0  0
 31 26  1  0  0  0
M  END
> <minimizedAffinity>
-4.68102

$$$$



 32 35  0  0  0  0  0  0  0  0999 V2000
  -30.6406   39.2200   13.0204 C   0  0  0  0  0  0  0  0  0  0  0  0
  -30.6854   38.3078   14.2103 C   0  0  0  0  0  0  0  0  0  0  0  0
  -31.3600   38.7551   15.4732 C   0  0  0  0  0  0  0  0  0  0  0  0
  -31.9897   40.1145   15.5462 N   0  0  0  0  0  0  0  0  0  0  0  0
  -31.9449   41.0267   14.3563 C   0  0  0  0  0  0  0  0  0  0  0  0
  -31.2703   40.5795   13.0934 C   0  0  0  0  0  0  0  0  0  0  0  0
  -31.2254   41.4917   11.9034 C   0  0  0  0  0  0  0  0  0  0  0  0
  -30.5509   41.0444   10.6406 O   0  0  0  0  0  0  0  0  0  0  0  0
  -31.8552   42.8511   11.9764 N   0  0  0  0  0  0  0  0  0  0  0  0
  -32.5297   43.2984   13.2394 C   0  0  0  0  0  0  0  0  0  0  0  0
  -33.1595   44.6578   13.3124 O   0  0  0  0  0  0  0  0  0  0  0  0
  -32.5746   42.3862   14.4293 N   0  0  0  0  0  0  0  0  0  0  0  0
  -33.2491   42.8335   15.6921 C   0  0  0  0  0  0  0  0  0  0  0  0
  -31.8103   43.7633   10.7865 C   0  0  0  0  0  0  0  0  0  0  0  0
  -29.9660   38.7727   11.7575 S   0  0  0  0  0  0  0  0  0  0  0  0
  -28.4684   38.7448   11.6765 C   0  0  0  0  0  0  0  0  0  0  0  0
  -26.1571   39.4694   12.6160 N   0  0  0  0  0  0  0  0  0  0  0  0
  -27.6514   39.5996   12.5993 C   0  0  0  0  0  0  0  0  0  0  0  0
  -28.3285   40.5847   13.5055 O   0  0  0  0  0  0  0  0  0  0  0  0
  -20.9572   42.7536   17.4943 C   0  0  0  0  0  0  0  0  0  0  0  0
  -22.1661   42.5668   16.6263 C   0  0  0  0  0  0  0  0  0  0  0  0
  -23.1688   43.6739   16.4887 C   0  0  0  0  0  0  0  0  0  0  0  0
  -24.3779   43.4871   15.6206 C   0  0  0  0  0  0  0  0  0  0  0  0
  -24.5841   42.1933   14.8902 C   0  0  0  0  0  0  0  0  0  0  0  0
  -23.5813   41.0862   15.0279 C   0  0  0  0  0  0  0  0  0  0  0  0
  -22.3724   41.2730   15.8959 C   0  0  0  0  0  0  0  0  0  0  0  0
  -24.0485   39.9311   14.1927 S   0  0  0  0  0  0  0  0  0  0  0  0
  -25.3400   40.3243   13.5389 C   0  0  0  0  0  0  0  0  0  0  0  0
  -25.6710   41.7224   13.9700 N   0  0  0  0  0  0  0  0  0  0  0  0
  -30.0557   36.9484   14.1373 C   0  0  0  0  0  0  0  0  0  0  0  0
  -30.8768   35.7626   13.7256 O   0  0  0  0  0  0  0  0  0  0  0  0
  -30.2033   34.4682   13.3779 C   0  0  0  0  0  0  0  0  0  0  0  0
 20 21  1  0  0  0
 21 22  2  0  0  0
 22 23  1  0  0  0
 23 24  2  0  0  0
 24 25  1  0  0  0
 25 26  2  0  0  0
 25 27  1  0  0  0
 27 28  1  0  0  0
 28 29  2  0  0  0
 28 17  1  0  0  0
 17 18  1  0  0  0
 18 19  2  0  0  0
 18 16  1  0  0  0
 16 15  1  0  0  0
 15  1  1  0  0  0
  1  2  2  0  0  0
  2  3  1  0  0  0
  3  4  2  0  0  0
  4  5  1  0  0  0
  5  6  2  0  0  0
  6  7  1  0  0  0
  7  8  2  0  0  0
  7  9  1  0  0  0
  9 10  1  0  0  0
 10 11  2  0  0  0
 10 12  1  0  0  0
 12 13  1  0  0  0
  9 14  1  0  0  0
  2 30  1  0  0  0
 30 31  1  0  0  0
 31 32  1  0  0  0
 26 21  1  0  0  0
 29 24  1  0  0  0
  6  1  1  0  0  0
 12  5  1  0  0  0
M  END
> <minimizedAffinity>
-6.72359

$$$$



 34 37  0  0  0  0  0  0  0  0999 V2000
  -25.8024   40.6178   14.0925 C   0  0  0  0  0  0  0  0  0  0  0  0
  -25.4092   40.0165   12.7758 C   0  0  0  0  0  0  0  0  0  0  0  0
  -26.4049   39.2167   11.9893 C   0  0  0  0  0  0  0  0  0  0  0  0
  -26.0117   38.6154   10.6725 O   0  0  0  0  0  0  0  0  0  0  0  0
  -27.7940   39.0181   12.5195 N   0  0  0  0  0  0  0  0  0  0  0  0
  -28.1873   39.6193   13.8363 C   0  0  0  0  0  0  0  0  0  0  0  0
  -27.1914   40.4192   14.6228 C   0  0  0  0  0  0  0  0  0  0  0  0
  -23.6548   40.7301   15.5505 C   0  0  0  0  0  0  0  0  0  0  0  0
  -22.6591   41.5300   16.3369 C   0  0  0  0  0  0  0  0  0  0  0  0
  -22.8150   43.0174   16.4520 C   0  0  0  0  0  0  0  0  0  0  0  0
  -23.9667   43.7050   15.7806 C   0  0  0  0  0  0  0  0  0  0  0  0
  -24.9624   42.9051   14.9941 C   0  0  0  0  0  0  0  0  0  0  0  0
  -24.8065   41.4177   14.8791 C   0  0  0  0  0  0  0  0  0  0  0  0
  -23.5381   38.3870   16.6667 C   0  0  0  0  0  0  0  0  0  0  0  0
  -23.4989   39.2427   15.4354 O   0  0  0  0  0  0  0  0  0  0  0  0
  -27.5846   41.0205   15.9395 C   0  0  0  0  0  0  0  0  0  0  0  0
  -27.9779   41.6218   17.2563 N   0  0  0  0  0  0  0  0  0  0  0  0
  -29.5763   39.4208   14.3665 S   0  0  0  0  0  0  0  0  0  0  0  0
  -29.8695   38.2770   15.2915 C   0  0  0  0  0  0  0  0  0  0  0  0
  -29.7681   36.8654   14.7944 C   0  0  0  0  0  0  0  0  0  0  0  0
  -30.8361   36.3061   13.9018 O   0  0  0  0  0  0  0  0  0  0  0  0
  -28.5989   36.0131   15.1898 N   0  0  0  0  0  0  0  0  0  0  0  0
  -27.5309   36.5724   16.0824 C   0  0  0  0  0  0  0  0  0  0  0  0
  -26.3617   35.7201   16.4778 C   0  0  0  0  0  0  0  0  0  0  0  0
  -26.2603   34.3084   15.9806 N   0  0  0  0  0  0  0  0  0  0  0  0
  -27.3283   33.7492   15.0881 C   0  0  0  0  0  0  0  0  0  0  0  0
  -28.4976   34.6015   14.6927 C   0  0  0  0  0  0  0  0  0  0  0  0
  -25.0910   33.4562   16.3761 C   0  0  0  0  0  0  0  0  0  0  0  0
  -24.9897   32.0445   15.8789 O   0  0  0  0  0  0  0  0  0  0  0  0
  -24.0231   34.0155   17.2686 C   0  0  0  0  0  0  0  0  0  0  0  0
  -22.6927   34.5478   16.8250 C   0  0  0  0  0  0  0  0  0  0  0  0
  -21.9454   35.0019   18.0437 C   0  0  0  0  0  0  0  0  0  0  0  0
  -22.8139   34.7503   19.2406 C   0  0  0  0  0  0  0  0  0  0  0  0
  -24.0979   34.1406   18.7615 O   0  0  0  0  0  0  0  0  0  0  0  0
 14 15  1  0  0  0
 15  8  1  0  0  0
  8  9  2  0  0  0
  9 10  1  0  0  0
 10 11  2  0  0  0
 11 12  1  0  0  0
 12 13  2  0  0  0
  1 13  1  0  0  0
  1  2  1  0  0  0
  2  3  1  0  0  0
  3  4  2  0  0  0
  3  5  1  0  0  0
  5  6  1  0  0  0
  6  7  2  0  0  0
  7 16  1  0  0  0
 16 17  3  0  0  0
  6 18  1  0  0  0
 18 19  1  0  0  0
 19 20  1  0  0  0
 20 21  2  0  0  0
 20 22  1  0  0  0
 22 23  1  0  0  0
 23 24  1  0  0  0
 24 25  1  0  0  0
 25 26  1  0  0  0
 26 27  1  0  0  0
 25 28  1  0  0  0
 28 29  2  0  0  0
 28 30  1  0  0  0
 30 31  2  0  0  0
 31 32  1  0  0  0
 32 33  2  0  0  0
 33 34  1  0  0  0
 13  8  1  0  0  0
  7  1  1  0  0  0
 27 22  1  0  0  0
 34 30  1  0  0  0
M  END
> <minimizedAffinity>
-5.97304

$$$$



 32 35  0  0  0  0  0  0  0  0999 V2000
  -28.4177   35.5253   16.6704 C   0  0  0  0  0  0  0  0  0  0  0  0
  -29.3523   34.4530   17.1464 O   0  0  0  0  0  0  0  0  0  0  0  0
  -28.9168   36.6024   15.7534 N   0  0  0  0  0  0  0  0  0  0  0  0
  -30.3505   36.6071   15.3123 C   0  0  0  0  0  0  0  0  0  0  0  0
  -30.8495   37.6841   14.3954 C   0  0  0  0  0  0  0  0  0  0  0  0
  -29.9149   38.7564   13.9194 C   0  0  0  0  0  0  0  0  0  0  0  0
  -28.4812   38.7518   14.3604 C   0  0  0  0  0  0  0  0  0  0  0  0
  -27.9822   37.6747   15.2774 C   0  0  0  0  0  0  0  0  0  0  0  0
  -29.1020   39.8882   13.3640 N   0  0  0  0  0  0  0  0  0  0  0  0
  -29.9992   40.7221   12.4981 C   0  0  0  0  0  0  0  0  0  0  0  0
  -31.3666   40.1057   12.5183 C   0  0  0  0  0  0  0  0  0  0  0  0
  -31.3145   38.8909   13.3966 O   0  0  0  0  0  0  0  0  0  0  0  0
  -25.8855   35.4743   16.0909 N   0  0  0  0  0  0  0  0  0  0  0  0
  -26.9840   35.5206   17.1114 C   0  0  0  0  0  0  0  0  0  0  0  0
  -26.6487   35.5623   18.5729 O   0  0  0  0  0  0  0  0  0  0  0  0
  -21.5845   35.4602   17.4140 C   0  0  0  0  0  0  0  0  0  0  0  0
  -22.2396   34.1828   16.9791 C   0  0  0  0  0  0  0  0  0  0  0  0
  -23.6732   34.1875   16.5380 C   0  0  0  0  0  0  0  0  0  0  0  0
  -24.4519   35.4696   16.5320 C   0  0  0  0  0  0  0  0  0  0  0  0
  -23.7969   36.7469   16.9669 C   0  0  0  0  0  0  0  0  0  0  0  0
  -22.3631   36.7423   17.4079 C   0  0  0  0  0  0  0  0  0  0  0  0
  -19.7251   34.6025   19.0131 C   0  0  0  0  0  0  0  0  0  0  0  0
  -20.1508   35.4556   17.8550 O   0  0  0  0  0  0  0  0  0  0  0  0
  -27.6474   40.1416   13.6282 S   0  0  0  0  0  0  0  0  0  0  0  0
  -28.0077   40.9423   14.8444 O   0  0  0  0  0  0  0  0  0  0  0  0
  -27.2870   39.3409   12.4121 O   0  0  0  0  0  0  0  0  0  0  0  0
  -26.1927   40.3950   13.8924 C   0  0  0  0  0  0  0  0  0  0  0  0
  -25.7769   41.5538   14.7493 C   0  0  0  0  0  0  0  0  0  0  0  0
  -24.3221   41.8072   15.0135 C   0  0  0  0  0  0  0  0  0  0  0  0
  -23.2835   40.9019   14.4207 C   0  0  0  0  0  0  0  0  0  0  0  0
  -23.6994   39.7431   13.5637 C   0  0  0  0  0  0  0  0  0  0  0  0
  -25.1540   39.4897   13.2996 C   0  0  0  0  0  0  0  0  0  0  0  0
 22 23  1  0  0  0
 23 16  1  0  0  0
 16 17  2  0  0  0
 17 18  1  0  0  0
 18 19  2  0  0  0
 19 20  1  0  0  0
 20 21  2  0  0  0
 19 13  1  0  0  0
 13 14  1  0  0  0
 14 15  2  0  0  0
 14  1  1  0  0  0
  1  2  2  0  0  0
  1  3  1  0  0  0
  3  4  1  0  0  0
  4  5  1  0  0  0
  5  6  1  0  0  0
  6  7  1  0  0  0
  7  8  1  0  0  0
  6  9  1  0  0  0
  9 10  1  0  0  0
 10 11  1  0  0  0
 11 12  1  0  0  0
  9 24  1  0  0  0
 24 25  2  0  0  0
 24 26  2  0  0  0
 24 27  1  0  0  0
 27 28  2  0  0  0
 28 29  1  0  0  0
 29 30  2  0  0  0
 30 31  1  0  0  0
 31 32  2  0  0  0
 21 16  1  0  0  0
  8  3  1  0  0  0
 12  6  1  0  0  0
 32 27  1  0  0  0
M  END
> <minimizedAffinity>
-5.39358

$$$$



 31 34  0  0  0  0  0  0  0  0999 V2000
  -26.8961   38.1890   11.9704 N   0  0  0  0  0  0  0  0  0  0  0  0
  -27.8408   37.1911   12.5719 C   0  0  0  0  0  0  0  0  0  0  0  0
  -29.3216   37.4164   12.4903 C   0  0  0  0  0  0  0  0  0  0  0  0
  -30.2663   36.4185   13.0917 C   0  0  0  0  0  0  0  0  0  0  0  0
  -29.7302   35.1953   13.7748 C   0  0  0  0  0  0  0  0  0  0  0  0
  -28.2495   34.9701   13.8564 C   0  0  0  0  0  0  0  0  0  0  0  0
  -27.3048   35.9679   13.2549 C   0  0  0  0  0  0  0  0  0  0  0  0
  -27.7134   33.7469   14.5394 S   0  0  0  0  0  0  0  0  0  0  0  0
  -28.7886   32.9189   13.9005 O   0  0  0  0  0  0  0  0  0  0  0  0
  -26.6382   34.5748   15.1784 O   0  0  0  0  0  0  0  0  0  0  0  0
  -27.1774   32.5237   15.2224 N   0  0  0  0  0  0  0  0  0  0  0  0
  -26.8294   32.5708   16.6807 C   0  0  0  0  0  0  0  0  0  0  0  0
  -26.2934   31.3476   17.3637 C   0  0  0  0  0  0  0  0  0  0  0  0
  -26.1053   30.0773   16.5884 O   0  0  0  0  0  0  0  0  0  0  0  0
  -26.4533   30.0303   15.1301 C   0  0  0  0  0  0  0  0  0  0  0  0
  -26.9894   31.2535   14.4471 C   0  0  0  0  0  0  0  0  0  0  0  0
  -26.0144   39.0166   12.8579 S   0  0  0  0  0  0  0  0  0  0  0  0
  -27.1410   39.9826   13.0762 O   0  0  0  0  0  0  0  0  0  0  0  0
  -24.8879   38.0506   12.6396 O   0  0  0  0  0  0  0  0  0  0  0  0
  -20.8692   43.5351   17.9133 C   0  0  0  0  0  0  0  0  0  0  0  0
  -21.4158   42.3905   17.1124 C   0  0  0  0  0  0  0  0  0  0  0  0
  -20.6747   41.0873   17.0645 O   0  0  0  0  0  0  0  0  0  0  0  0
  -22.7033   42.5494   16.3594 N   0  0  0  0  0  0  0  0  0  0  0  0
  -23.5510   43.7861   16.3134 C   0  0  0  0  0  0  0  0  0  0  0  0
  -24.7408   43.5004   15.4458 C   0  0  0  0  0  0  0  0  0  0  0  0
  -24.6285   42.0872   14.9557 C   0  0  0  0  0  0  0  0  0  0  0  0
  -23.3693   41.4994   15.5204 C   0  0  0  0  0  0  0  0  0  0  0  0
  -22.9918   40.0841   15.1976 C   0  0  0  0  0  0  0  0  0  0  0  0
  -23.8735   39.2565   14.3101 C   0  0  0  0  0  0  0  0  0  0  0  0
  -25.1327   39.8443   13.7454 C   0  0  0  0  0  0  0  0  0  0  0  0
  -25.5102   41.2596   14.0682 C   0  0  0  0  0  0  0  0  0  0  0  0
 20 21  1  0  0  0
 21 22  2  0  0  0
 21 23  1  0  0  0
 23 24  1  0  0  0
 24 25  1  0  0  0
 25 26  1  0  0  0
 26 27  2  0  0  0
 27 28  1  0  0  0
 28 29  2  0  0  0
 29 30  1  0  0  0
 30 31  2  0  0  0
 30 17  1  0  0  0
 17 18  2  0  0  0
 17 19  2  0  0  0
 17  1  1  0  0  0
  1  2  1  0  0  0
  2  3  2  0  0  0
  3  4  1  0  0  0
  4  5  2  0  0  0
  5  6  1  0  0  0
  6  7  2  0  0  0
  6  8  1  0  0  0
  8  9  2  0  0  0
  8 10  2  0  0  0
  8 11  1  0  0  0
 11 12  1  0  0  0
 12 13  1  0  0  0
 13 14  1  0  0  0
 14 15  1  0  0  0
 15 16  1  0  0  0
 27 23  1  0  0  0
 31 26  1  0  0  0
  7  2  1  0  0  0
 16 11  1  0  0  0
M  END
> <minimizedAffinity>
-7.00258

$$$$



 31 34  0  0  0  0  0  0  0  0999 V2000
  -30.1851   37.1197   16.7827 N   0  0  0  0  0  0  0  0  0  0  0  0
  -28.7314   37.4787   16.8708 C   0  0  0  0  0  0  0  0  0  0  0  0
  -28.1491   38.4868   15.9250 C   0  0  0  0  0  0  0  0  0  0  0  0
  -29.0205   39.1359   14.8909 N   0  0  0  0  0  0  0  0  0  0  0  0
  -30.4742   38.7769   14.8027 C   0  0  0  0  0  0  0  0  0  0  0  0
  -31.0565   37.7688   15.7486 C   0  0  0  0  0  0  0  0  0  0  0  0
  -28.4382   40.1440   13.9450 C   0  0  0  0  0  0  0  0  0  0  0  0
  -29.3096   40.7931   12.9110 O   0  0  0  0  0  0  0  0  0  0  0  0
  -26.9845   40.5030   14.0332 C   0  0  0  0  0  0  0  0  0  0  0  0
  -26.3495   41.3560   15.0911 C   0  0  0  0  0  0  0  0  0  0  0  0
  -24.8830   41.4522   14.7907 C   0  0  0  0  0  0  0  0  0  0  0  0
  -24.6116   40.6585   13.5470 N   0  0  0  0  0  0  0  0  0  0  0  0
  -25.9104   40.0719   13.0789 N   0  0  0  0  0  0  0  0  0  0  0  0
  -23.8664   42.2091   15.5929 C   0  0  0  0  0  0  0  0  0  0  0  0
  -23.9143   43.6717   15.9221 C   0  0  0  0  0  0  0  0  0  0  0  0
  -22.7010   44.0028   16.7395 C   0  0  0  0  0  0  0  0  0  0  0  0
  -21.9032   42.7448   16.9155 C   0  0  0  0  0  0  0  0  0  0  0  0
  -22.6235   41.6362   16.2068 S   0  0  0  0  0  0  0  0  0  0  0  0
  -30.7674   36.1117   17.7286 S   0  0  0  0  0  0  0  0  0  0  0  0
  -29.9287   35.0382   17.1008 O   0  0  0  0  0  0  0  0  0  0  0  0
  -31.6062   37.1852   18.3563 O   0  0  0  0  0  0  0  0  0  0  0  0
  -32.5144   33.0874   20.5662 C   0  0  0  0  0  0  0  0  0  0  0  0
  -33.4147   34.0440   19.8421 C   0  0  0  0  0  0  0  0  0  0  0  0
  -32.8324   35.0521   18.8962 C   0  0  0  0  0  0  0  0  0  0  0  0
  -31.3498   35.1036   18.6744 C   0  0  0  0  0  0  0  0  0  0  0  0
  -30.4495   34.1470   19.3985 C   0  0  0  0  0  0  0  0  0  0  0  0
  -31.0318   33.1389   20.3444 C   0  0  0  0  0  0  0  0  0  0  0  0
  -34.5292   32.1941   21.9418 C   0  0  0  0  0  0  0  0  0  0  0  0
  -33.0967   32.0794   21.5121 O   0  0  0  0  0  0  0  0  0  0  0  0
  -30.1315   32.1822   21.0685 O   0  0  0  0  0  0  0  0  0  0  0  0
  -29.2475   31.2511   20.2929 C   0  0  0  0  0  0  0  0  0  0  0  0
 28 29  1  0  0  0
 29 22  1  0  0  0
 22 23  2  0  0  0
 23 24  1  0  0  0
 24 25  2  0  0  0
 25 26  1  0  0  0
 26 27  2  0  0  0
 27 30  1  0  0  0
 30 31  1  0  0  0
 25 19  1  0  0  0
 19 20  2  0  0  0
 19 21  2  0  0  0
 19  1  1  0  0  0
  1  2  1  0  0  0
  2  3  1  0  0  0
  3  4  1  0  0  0
  4  5  1  0  0  0
  5  6  1  0  0  0
  4  7  1  0  0  0
  7  8  2  0  0  0
  7  9  1  0  0  0
  9 10  2  0  0  0
 10 11  1  0  0  0
 11 12  2  0  0  0
 12 13  1  0  0  0
 11 14  1  0  0  0
 14 15  2  0  0  0
 15 16  1  0  0  0
 16 17  2  0  0  0
 17 18  1  0  0  0
 27 22  1  0  0  0
  6  1  1  0  0  0
 13  9  1  0  0  0
 18 14  1  0  0  0
M  END
> <minimizedAffinity>
-5.45847

$$$$



 32 35  0  0  0  0  0  0  0  0999 V2000
  -26.0099   39.5369   12.7607 C   0  0  0  0  0  0  0  0  0  0  0  0
  -25.6862   40.3852   13.9546 C   0  0  0  0  0  0  0  0  0  0  0  0
  -26.7917   40.9288   14.8104 C   0  0  0  0  0  0  0  0  0  0  0  0
  -26.4680   41.7771   16.0043 C   0  0  0  0  0  0  0  0  0  0  0  0
  -27.5735   42.3207   16.8601 C   0  0  0  0  0  0  0  0  0  0  0  0
  -29.0027   42.0160   16.5220 C   0  0  0  0  0  0  0  0  0  0  0  0
  -29.3265   41.1676   15.3280 C   0  0  0  0  0  0  0  0  0  0  0  0
  -28.2210   40.6240   14.4722 C   0  0  0  0  0  0  0  0  0  0  0  0
  -30.8184   41.0366   15.2433 O   0  0  0  0  0  0  0  0  0  0  0  0
  -31.4166   41.8040   16.3848 C   0  0  0  0  0  0  0  0  0  0  0  0
  -30.2945   42.4092   17.1751 O   0  0  0  0  0  0  0  0  0  0  0  0
  -25.0387   42.0819   16.3425 C   0  0  0  0  0  0  0  0  0  0  0  0
  -23.9332   41.5383   15.4868 C   0  0  0  0  0  0  0  0  0  0  0  0
  -24.2569   40.6899   14.2928 N   0  0  0  0  0  0  0  0  0  0  0  0
  -23.1514   40.1464   13.4370 C   0  0  0  0  0  0  0  0  0  0  0  0
  -28.5447   39.7757   13.2782 O   0  0  0  0  0  0  0  0  0  0  0  0
  -29.6226   40.2013   12.3258 C   0  0  0  0  0  0  0  0  0  0  0  0
  -25.8464   38.0475   12.8323 C   0  0  0  0  0  0  0  0  0  0  0  0
  -24.9576   37.3426   11.8509 O   0  0  0  0  0  0  0  0  0  0  0  0
  -26.6655   36.2647   16.2820 N   0  0  0  0  0  0  0  0  0  0  0  0
  -25.9403   37.0491   15.2290 C   0  0  0  0  0  0  0  0  0  0  0  0
  -26.5715   37.2631   13.8853 C   0  0  0  0  0  0  0  0  0  0  0  0
  -27.9281   36.6927   13.5944 C   0  0  0  0  0  0  0  0  0  0  0  0
  -28.5594   36.9067   12.2507 O   0  0  0  0  0  0  0  0  0  0  0  0
  -28.6533   35.9083   14.6474 N   0  0  0  0  0  0  0  0  0  0  0  0
  -28.0220   35.6943   15.9911 C   0  0  0  0  0  0  0  0  0  0  0  0
  -28.7472   34.9099   17.0442 S   0  0  0  0  0  0  0  0  0  0  0  0
  -24.5838   37.6196   15.5197 O   0  0  0  0  0  0  0  0  0  0  0  0
  -24.9424   35.0349   17.7883 C   0  0  0  0  0  0  0  0  0  0  0  0
  -26.0342   36.0507   17.6257 C   0  0  0  0  0  0  0  0  0  0  0  0
  -30.0098   35.3379   14.3567 C   0  0  0  0  0  0  0  0  0  0  0  0
  -30.1573   34.2218   13.3654 C   0  0  0  0  0  0  0  0  0  0  0  0
 29 30  1  0  0  0
 30 20  1  0  0  0
 20 21  1  0  0  0
 21 22  2  0  0  0
 22 23  1  0  0  0
 23 24  2  0  0  0
 23 25  1  0  0  0
 25 26  1  0  0  0
 26 27  2  0  0  0
 25 31  1  0  0  0
 31 32  1  0  0  0
 22 18  1  0  0  0
 18 19  2  0  0  0
 18  1  1  0  0  0
  2  1  1  0  0  0
  2  3  1  0  0  0
  3  4  1  0  0  0
  4  5  2  0  0  0
  5  6  1  0  0  0
  6  7  2  0  0  0
  7  8  1  0  0  0
  8 16  1  0  0  0
 16 17  1  0  0  0
  7  9  1  0  0  0
  9 10  1  0  0  0
 10 11  1  0  0  0
  4 12  1  0  0  0
 12 13  1  0  0  0
 13 14  1  0  0  0
 14 15  1  0  0  0
 21 28  1  0  0  0
 26 20  1  0  0  0
 14  2  1  0  0  0
  8  3  2  0  0  0
 11  6  1  0  0  0
M  CHG 1  14   1
M  CHG 1  28  -1
M  END
> <minimizedAffinity>
-4.56253

$$$$



 35 39  0  0  0  0  0  0  0  0999 V2000
  -26.4254   38.8907   11.1453 C   0  0  0  0  0  0  0  0  0  0  0  0
  -26.8318   39.5651   12.4221 N   0  0  0  0  0  0  0  0  0  0  0  0
  -25.9054   40.1909   13.4221 C   0  0  0  0  0  0  0  0  0  0  0  0
  -24.4121   40.3281   13.4585 C   0  0  0  0  0  0  0  0  0  0  0  0
  -23.7504   41.0190   14.6137 C   0  0  0  0  0  0  0  0  0  0  0  0
  -24.5819   41.5728   15.7326 C   0  0  0  0  0  0  0  0  0  0  0  0
  -26.0751   41.4356   15.6963 C   0  0  0  0  0  0  0  0  0  0  0  0
  -26.7369   40.7447   14.5411 C   0  0  0  0  0  0  0  0  0  0  0  0
  -28.1771   40.4611   14.2325 C   0  0  0  0  0  0  0  0  0  0  0  0
  -28.2358   39.7320   12.9229 C   0  0  0  0  0  0  0  0  0  0  0  0
  -28.8382   39.4439   12.4875 O   0  0  0  0  0  0  0  0  0  0  0  0
  -29.6174   40.1775   13.9240 C   0  0  0  0  0  0  0  0  0  0  0  0
  -30.4489   40.7312   15.0429 C   0  0  0  0  0  0  0  0  0  0  0  0
  -29.5225   41.3571   16.0430 C   0  0  0  0  0  0  0  0  0  0  0  0
  -29.9289   42.0315   17.3197 O   0  0  0  0  0  0  0  0  0  0  0  0
  -28.1185   41.1901   15.5422 N   0  0  0  0  0  0  0  0  0  0  0  0
  -31.9442   40.6699   15.1440 O   0  0  0  0  0  0  0  0  0  0  0  0
  -30.1353   39.4652   12.7097 C   0  0  0  0  0  0  0  0  0  0  0  0
  -30.2389   38.6796   12.6220 O   0  0  0  0  0  0  0  0  0  0  0  0
  -30.5208   40.2470   11.4890 C   0  0  0  0  0  0  0  0  0  0  0  0
  -30.6349   39.5573   10.1618 C   0  0  0  0  0  0  0  0  0  0  0  0
  -31.0204   40.3392    8.9410 C   0  0  0  0  0  0  0  0  0  0  0  0
  -31.2918   41.8106    9.0475 C   0  0  0  0  0  0  0  0  0  0  0  0
  -31.1776   42.5002   10.3747 C   0  0  0  0  0  0  0  0  0  0  0  0
  -30.7921   41.7184   11.5954 C   0  0  0  0  0  0  0  0  0  0  0  0
  -31.4490   43.9716   10.4812 O   0  0  0  0  0  0  0  0  0  0  0  0
  -31.8345   44.7534    9.2605 C   0  0  0  0  0  0  0  0  0  0  0  0
  -31.9486   44.0638    7.9333 C   0  0  0  0  0  0  0  0  0  0  0  0
  -31.6773   42.5924    7.8268 O   0  0  0  0  0  0  0  0  0  0  0  0
  -26.8743   41.6683   16.2302 C   0  0  0  0  0  0  0  0  0  0  0  0
  -26.3517   40.9351   17.4299 C   0  0  0  0  0  0  0  0  0  0  0  0
  -27.0897   39.7415   17.9596 C   0  0  0  0  0  0  0  0  0  0  0  0
  -27.0309   38.4359   17.2235 N   0  0  0  0  0  0  0  0  0  0  0  0
  -28.2973   37.7018   16.8959 C   0  0  0  0  0  0  0  0  0  0  0  0
  -25.7055   37.8643   16.8148 C   0  0  0  0  0  0  0  0  0  0  0  0
  1  2  1  0  0  0
  2  3  1  0  0  0
  3  4  2  0  0  0
  4  5  1  0  0  0
  5  6  2  0  0  0
  6  7  1  0  0  0
  7  8  2  0  0  0
  8  9  1  0  0  0
  9 10  1  0  0  0
 10 11  2  0  0  0
  9 12  1  0  0  0
 12 13  2  0  0  0
 13 14  1  0  0  0
 14 15  2  0  0  0
 14 16  1  0  0  0
 16 30  1  0  0  0
 30 31  1  0  0  0
 31 32  1  0  0  0
 32 33  1  0  0  0
 33 34  1  0  0  0
 33 35  1  0  0  0
 13 17  1  0  0  0
 12 18  1  0  0  0
 18 19  2  0  0  0
 18 20  1  0  0  0
 20 21  2  0  0  0
 21 22  1  0  0  0
 22 23  2  0  0  0
 23 24  1  0  0  0
 24 25  2  0  0  0
 24 26  1  0  0  0
 26 27  1  0  0  0
 27 28  1  0  0  0
 28 29  1  0  0  0
 10  2  1  0  0  0
  8  3  1  0  0  0
  9 16  1  0  0  0
 25 20  1  0  0  0
 29 23  1  0  0  0
M  CHG 1  17  -1
M  CHG 1  33   1
M  END
> <minimizedAffinity>
-5.18438

$$$$



 34 38  0  0  0  0  0  0  0  0999 V2000
  -26.4556   38.9258   11.1231 C   0  0  0  0  0  0  0  0  0  0  0  0
  -26.8517   39.5755   12.4158 N   0  0  0  0  0  0  0  0  0  0  0  0
  -25.9166   40.1728   13.4252 C   0  0  0  0  0  0  0  0  0  0  0  0
  -24.4222   40.2981   13.4581 C   0  0  0  0  0  0  0  0  0  0  0  0
  -23.7506   40.9591   14.6252 C   0  0  0  0  0  0  0  0  0  0  0  0
  -24.5734   41.4947   15.7593 C   0  0  0  0  0  0  0  0  0  0  0  0
  -26.0678   41.3693   15.7263 C   0  0  0  0  0  0  0  0  0  0  0  0
  -26.7393   40.7084   14.5592 C   0  0  0  0  0  0  0  0  0  0  0  0
  -28.1829   40.4421   14.2507 C   0  0  0  0  0  0  0  0  0  0  0  0
  -28.2524   39.7420   12.9260 C   0  0  0  0  0  0  0  0  0  0  0  0
  -28.8587   39.4678   12.4870 O   0  0  0  0  0  0  0  0  0  0  0  0
  -29.6266   40.1759   13.9423 C   0  0  0  0  0  0  0  0  0  0  0  0
  -30.4493   40.7115   15.0764 C   0  0  0  0  0  0  0  0  0  0  0  0
  -29.5142   41.3088   16.0858 C   0  0  0  0  0  0  0  0  0  0  0  0
  -29.9103   41.9584   17.3784 O   0  0  0  0  0  0  0  0  0  0  0  0
  -28.1135   41.1423   15.5755 N   0  0  0  0  0  0  0  0  0  0  0  0
  -31.9446   40.6590   15.1824 O   0  0  0  0  0  0  0  0  0  0  0  0
  -30.1546   39.4938   12.7151 C   0  0  0  0  0  0  0  0  0  0  0  0
  -30.2639   38.7110   12.6107 O   0  0  0  0  0  0  0  0  0  0  0  0
  -30.5404   40.3047   11.5136 C   0  0  0  0  0  0  0  0  0  0  0  0
  -30.6769   39.6428   10.1745 C   0  0  0  0  0  0  0  0  0  0  0  0
  -31.0626   40.4537    8.9729 C   0  0  0  0  0  0  0  0  0  0  0  0
  -31.3118   41.9264    9.1105 C   0  0  0  0  0  0  0  0  0  0  0  0
  -31.1753   42.5883   10.4497 C   0  0  0  0  0  0  0  0  0  0  0  0
  -30.7895   41.7775   11.6512 C   0  0  0  0  0  0  0  0  0  0  0  0
  -31.4244   44.0611   10.5873 O   0  0  0  0  0  0  0  0  0  0  0  0
  -31.8102   44.8719    9.3858 C   0  0  0  0  0  0  0  0  0  0  0  0
  -31.9467   44.2100    8.0466 C   0  0  0  0  0  0  0  0  0  0  0  0
  -31.6975   42.7373    7.9090 O   0  0  0  0  0  0  0  0  0  0  0  0
  -26.8630   41.5963   16.2684 C   0  0  0  0  0  0  0  0  0  0  0  0
  -26.7715   42.9908   16.8131 C   0  0  0  0  0  0  0  0  0  0  0  0
  -27.1077   43.2583   18.2503 N   0  0  0  0  0  0  0  0  0  0  0  0
  -26.7669   42.2441   19.3015 C   0  0  0  0  0  0  0  0  0  0  0  0
  -27.7849   44.5399   18.6362 C   0  0  0  0  0  0  0  0  0  0  0  0
  1  2  1  0  0  0
  2  3  1  0  0  0
  3  4  2  0  0  0
  4  5  1  0  0  0
  5  6  2  0  0  0
  6  7  1  0  0  0
  7  8  2  0  0  0
  8  9  1  0  0  0
  9 10  1  0  0  0
 10 11  2  0  0  0
  9 12  1  0  0  0
 12 13  2  0  0  0
 13 14  1  0  0  0
 14 15  2  0  0  0
 14 16  1  0  0  0
 16 30  1  0  0  0
 30 31  1  0  0  0
 31 32  1  0  0  0
 32 33  1  0  0  0
 32 34  1  0  0  0
 13 17  1  0  0  0
 12 18  1  0  0  0
 18 19  2  0  0  0
 18 20  1  0  0  0
 20 21  2  0  0  0
 21 22  1  0  0  0
 22 23  2  0  0  0
 23 24  1  0  0  0
 24 25  2  0  0  0
 24 26  1  0  0  0
 26 27  1  0  0  0
 27 28  1  0  0  0
 28 29  1  0  0  0
 10  2  1  0  0  0
  8  3  1  0  0  0
  9 16  1  0  0  0
 25 20  1  0  0  0
 29 23  1  0  0  0
M  CHG 1  17  -1
M  CHG 1  32   1
M  END
> <minimizedAffinity>
-5.45277

$$$$



 33 36  0  0  0  0  0  0  0  0999 V2000
  -29.9138   39.1360   15.5863 C   0  0  0  0  0  0  0  0  0  0  0  0
  -31.0039   39.2629   16.6089 O   0  0  0  0  0  0  0  0  0  0  0  0
  -28.5797   39.7774   15.8287 N   0  0  0  0  0  0  0  0  0  0  0  0
  -28.3355   40.5456   17.0937 C   0  0  0  0  0  0  0  0  0  0  0  0
  -27.0014   41.1869   17.3361 C   0  0  0  0  0  0  0  0  0  0  0  0
  -25.9114   41.0601   16.3136 N   0  0  0  0  0  0  0  0  0  0  0  0
  -26.1555   40.2918   15.0486 C   0  0  0  0  0  0  0  0  0  0  0  0
  -27.4896   39.6505   14.8062 C   0  0  0  0  0  0  0  0  0  0  0  0
  -24.5773   41.7014   16.5560 S   0  0  0  0  0  0  0  0  0  0  0  0
  -25.2612   42.9843   16.9255 O   0  0  0  0  0  0  0  0  0  0  0  0
  -23.8934   40.4185   16.1866 O   0  0  0  0  0  0  0  0  0  0  0  0
  -23.2431   42.3428   16.7985 C   0  0  0  0  0  0  0  0  0  0  0  0
  -22.0017   41.5016   16.8319 C   0  0  0  0  0  0  0  0  0  0  0  0
  -20.6674   42.1429   17.0744 C   0  0  0  0  0  0  0  0  0  0  0  0
  -20.5748   43.6254   17.2833 C   0  0  0  0  0  0  0  0  0  0  0  0
  -21.8164   44.4666   17.2498 C   0  0  0  0  0  0  0  0  0  0  0  0
  -23.1505   43.8252   17.0074 C   0  0  0  0  0  0  0  0  0  0  0  0
  -19.2407   44.2667   17.5257 Cl  0  0  0  0  0  0  0  0  0  0  0  0
  -30.1579   38.3678   14.3214 C   0  0  0  0  0  0  0  0  0  0  0  0
  -28.9246   34.7359   13.7265 C   0  0  0  0  0  0  0  0  0  0  0  0
  -28.8286   36.2107   13.4698 C   0  0  0  0  0  0  0  0  0  0  0  0
  -27.8412   36.8857   12.5647 O   0  0  0  0  0  0  0  0  0  0  0  0
  -29.8935   36.8920   14.2773 N   0  0  0  0  0  0  0  0  0  0  0  0
  -30.6477   35.8382   15.0330 C   0  0  0  0  0  0  0  0  0  0  0  0
  -31.7984   36.0753   15.9653 O   0  0  0  0  0  0  0  0  0  0  0  0
  -30.0489   34.5057   14.6926 N   0  0  0  0  0  0  0  0  0  0  0  0
  -28.0500   33.6772   13.1230 C   0  0  0  0  0  0  0  0  0  0  0  0
  -26.4642   30.3372   15.6882 C   0  0  0  0  0  0  0  0  0  0  0  0
  -26.2668   31.7637   16.1077 C   0  0  0  0  0  0  0  0  0  0  0  0
  -26.7954   32.8770   15.2527 C   0  0  0  0  0  0  0  0  0  0  0  0
  -27.5214   32.5639   13.9781 C   0  0  0  0  0  0  0  0  0  0  0  0
  -27.7189   31.1374   13.5585 C   0  0  0  0  0  0  0  0  0  0  0  0
  -27.1903   30.0241   14.4135 C   0  0  0  0  0  0  0  0  0  0  0  0
 28 29  2  0  0  0
 29 30  1  0  0  0
 30 31  2  0  0  0
 31 32  1  0  0  0
 32 33  2  0  0  0
 31 27  1  0  0  0
 20 27  1  0  0  0
 20 21  1  0  0  0
 21 22  2  0  0  0
 21 23  1  0  0  0
 23 24  1  0  0  0
 24 25  2  0  0  0
 24 26  1  0  0  0
 23 19  1  0  0  0
 19  1  1  0  0  0
  1  2  2  0  0  0
  1  3  1  0  0  0
  3  4  1  0  0  0
  4  5  1  0  0  0
  5  6  1  0  0  0
  6  7  1  0  0  0
  7  8  1  0  0  0
  6  9  1  0  0  0
  9 10  2  0  0  0
  9 11  2  0  0  0
  9 12  1  0  0  0
 12 13  2  0  0  0
 13 14  1  0  0  0
 14 15  2  0  0  0
 15 16  1  0  0  0
 16 17  2  0  0  0
 15 18  1  0  0  0
 33 28  1  0  0  0
 26 20  1  0  0  0
  8  3  1  0  0  0
 17 12  1  0  0  0
M  END
> <minimizedAffinity>
-5.93902

$$$$



 33 37  0  0  0  0  0  0  0  0999 V2000
  -30.9244   39.3111   15.2325 C   0  0  0  0  0  0  0  0  0  0  0  0
  -25.6308   43.4538   17.1384 C   0  0  0  0  0  0  0  0  0  0  0  0
  -24.2712   43.5512   16.5123 C   0  0  0  0  0  0  0  0  0  0  0  0
  -23.9254   42.6918   15.3326 C   0  0  0  0  0  0  0  0  0  0  0  0
  -24.9392   41.7349   14.7789 C   0  0  0  0  0  0  0  0  0  0  0  0
  -26.2988   41.6375   15.4050 C   0  0  0  0  0  0  0  0  0  0  0  0
  -26.6446   42.4969   16.5847 C   0  0  0  0  0  0  0  0  0  0  0  0
  -27.3127   40.6806   14.8513 C   0  0  0  0  0  0  0  0  0  0  0  0
  -26.9669   39.8212   13.6715 C   0  0  0  0  0  0  0  0  0  0  0  0
  -25.6072   39.9186   13.0455 C   0  0  0  0  0  0  0  0  0  0  0  0
  -24.5934   40.8755   13.5991 O   0  0  0  0  0  0  0  0  0  0  0  0
  -28.4238   39.7750   14.4096 C   0  0  0  0  0  0  0  0  0  0  0  0
  -28.3705   38.8078   13.2644 O   0  0  0  0  0  0  0  0  0  0  0  0
  -29.5977   40.0063   15.3143 N   0  0  0  0  0  0  0  0  0  0  0  0
  -29.2120   41.0550   16.3152 C   0  0  0  0  0  0  0  0  0  0  0  0
  -30.0853   41.5925   17.4099 O   0  0  0  0  0  0  0  0  0  0  0  0
  -27.7998   41.4717   16.0290 N   0  0  0  0  0  0  0  0  0  0  0  0
  -31.2459   38.1948   16.1815 N   0  0  0  0  0  0  0  0  0  0  0  0
  -32.5492   38.1939   16.9243 C   0  0  0  0  0  0  0  0  0  0  0  0
  -32.8707   37.0777   17.8733 C   0  0  0  0  0  0  0  0  0  0  0  0
  -31.8891   35.9623   18.0795 N   0  0  0  0  0  0  0  0  0  0  0  0
  -30.5860   35.9632   17.3367 C   0  0  0  0  0  0  0  0  0  0  0  0
  -30.2644   37.0795   16.3877 C   0  0  0  0  0  0  0  0  0  0  0  0
  -32.2107   34.8461   19.0285 S   0  0  0  0  0  0  0  0  0  0  0  0
  -33.6382   34.8661   18.5684 O   0  0  0  0  0  0  0  0  0  0  0  0
  -30.7831   34.8260   19.4885 O   0  0  0  0  0  0  0  0  0  0  0  0
  -32.5322   33.7298   19.9774 C   0  0  0  0  0  0  0  0  0  0  0  0
  -33.9515   33.4894   20.3992 C   0  0  0  0  0  0  0  0  0  0  0  0
  -34.2731   32.3732   21.3482 C   0  0  0  0  0  0  0  0  0  0  0  0
  -33.1754   31.4973   21.8754 C   0  0  0  0  0  0  0  0  0  0  0  0
  -31.7562   31.7377   21.4536 C   0  0  0  0  0  0  0  0  0  0  0  0
  -31.4346   32.8539   20.5046 C   0  0  0  0  0  0  0  0  0  0  0  0
  -30.6585   30.8618   21.9808 F   0  0  0  0  0  0  0  0  0  0  0  0
  2  3  2  0  0  0
  3  4  1  0  0  0
  4  5  2  0  0  0
  5  6  1  0  0  0
  6  7  2  0  0  0
  6  8  1  0  0  0
  8  9  1  0  0  0
  9 10  1  0  0  0
 10 11  1  0  0  0
  8 12  1  0  0  0
 12 13  2  0  0  0
 12 14  1  0  0  0
 14 15  1  0  0  0
 15 16  2  0  0  0
 15 17  1  0  0  0
 14  1  1  0  0  0
  1 18  1  0  0  0
 18 19  1  0  0  0
 19 20  1  0  0  0
 20 21  1  0  0  0
 21 22  1  0  0  0
 22 23  1  0  0  0
 21 24  1  0  0  0
 24 25  2  0  0  0
 24 26  2  0  0  0
 24 27  1  0  0  0
 27 28  2  0  0  0
 28 29  1  0  0  0
 29 30  2  0  0  0
 30 31  1  0  0  0
 31 32  2  0  0  0
 31 33  1  0  0  0
  7  2  1  0  0  0
 11  5  1  0  0  0
 17  8  1  0  0  0
 23 18  1  0  0  0
 32 27  1  0  0  0
M  END
> <minimizedAffinity>
-5.57793

$$$$



 34 39  0  0  0  0  0  0  0  0999 V2000
  -25.8405   37.7495   14.0806 C   0  0  0  0  0  0  0  0  0  0  0  0
  -24.8150   38.7221   14.5830 C   0  0  0  0  0  0  0  0  0  0  0  0
  -24.7061   40.0839   13.9634 C   0  0  0  0  0  0  0  0  0  0  0  0
  -25.6226   40.4730   12.8416 O   0  0  0  0  0  0  0  0  0  0  0  0
  -23.6806   41.0565   14.4658 N   0  0  0  0  0  0  0  0  0  0  0  0
  -22.7640   40.6674   15.5876 C   0  0  0  0  0  0  0  0  0  0  0  0
  -21.7385   41.6401   16.0899 O   0  0  0  0  0  0  0  0  0  0  0  0
  -22.8730   39.3057   16.2071 N   0  0  0  0  0  0  0  0  0  0  0  0
  -23.8985   38.3330   15.7048 C   0  0  0  0  0  0  0  0  0  0  0  0
  -24.0074   36.9713   16.3244 N   0  0  0  0  0  0  0  0  0  0  0  0
  -25.0329   35.9987   15.8220 C   0  0  0  0  0  0  0  0  0  0  0  0
  -25.9494   36.3878   14.7002 N   0  0  0  0  0  0  0  0  0  0  0  0
  -25.1419   34.6369   16.4416 C   0  0  0  0  0  0  0  0  0  0  0  0
  -25.9654   33.5752   17.1084 C   0  0  0  0  0  0  0  0  0  0  0  0
  -24.5071   33.3400   16.8477 C   0  0  0  0  0  0  0  0  0  0  0  0
  -21.9564   38.9166   17.3290 C   0  0  0  0  0  0  0  0  0  0  0  0
  -20.8340   38.0727   17.8562 C   0  0  0  0  0  0  0  0  0  0  0  0
  -21.4914   39.0866   18.7449 C   0  0  0  0  0  0  0  0  0  0  0  0
  -26.7570   38.1386   12.9588 S   0  0  0  0  0  0  0  0  0  0  0  0
  -28.2427   38.1251   13.1651 C   0  0  0  0  0  0  0  0  0  0  0  0
  -29.0033   39.4166   13.2257 C   0  0  0  0  0  0  0  0  0  0  0  0
  -28.9750   40.2457   14.4754 O   0  0  0  0  0  0  0  0  0  0  0  0
  -29.7920   39.8790   12.0366 N   0  0  0  0  0  0  0  0  0  0  0  0
  -30.5526   41.1705   12.0972 C   0  0  0  0  0  0  0  0  0  0  0  0
  -31.3413   41.6329   10.9081 C   0  0  0  0  0  0  0  0  0  0  0  0
  -31.3696   40.8039    9.6584 O   0  0  0  0  0  0  0  0  0  0  0  0
  -30.6091   39.5124    9.5977 C   0  0  0  0  0  0  0  0  0  0  0  0
  -29.8203   39.0500   10.7868 C   0  0  0  0  0  0  0  0  0  0  0  0
  -30.4182   34.2102   13.6021 C   0  0  0  0  0  0  0  0  0  0  0  0
  -30.6636   35.3182   14.5831 C   0  0  0  0  0  0  0  0  0  0  0  0
  -29.9384   36.6232   14.4374 C   0  0  0  0  0  0  0  0  0  0  0  0
  -28.9679   36.8201   13.3107 C   0  0  0  0  0  0  0  0  0  0  0  0
  -28.7225   35.7122   12.3298 C   0  0  0  0  0  0  0  0  0  0  0  0
  -29.4477   34.4072   12.4755 C   0  0  0  0  0  0  0  0  0  0  0  0
 29 30  2  0  0  0
 30 31  1  0  0  0
 31 32  2  0  0  0
 32 33  1  0  0  0
 33 34  2  0  0  0
 32 20  1  0  0  0
 20 21  1  0  0  0
 21 22  2  0  0  0
 21 23  1  0  0  0
 23 24  1  0  0  0
 24 25  1  0  0  0
 25 26  1  0  0  0
 26 27  1  0  0  0
 27 28  1  0  0  0
 20 19  1  0  0  0
 19  1  1  0  0  0
  1  2  2  0  0  0
  2  3  1  0  0  0
  3  4  2  0  0  0
  3  5  1  0  0  0
  5  6  1  0  0  0
  6  7  2  0  0  0
  6  8  1  0  0  0
  8  9  1  0  0  0
  9 10  2  0  0  0
 10 11  1  0  0  0
 11 12  2  0  0  0
 11 13  1  0  0  0
 13 14  1  0  0  0
 14 15  1  0  0  0
  8 16  1  0  0  0
 16 17  1  0  0  0
 17 18  1  0  0  0
 34 29  1  0  0  0
 28 23  1  0  0  0
 12  1  1  0  0  0
  9  2  1  0  0  0
 15 13  1  0  0  0
 18 16  1  0  0  0
M  END
> <minimizedAffinity>
-6.11765

$$$$



 33 37  0  0  0  0  0  0  0  0999 V2000
  -29.6698   38.8407   14.4529 N   0  0  0  0  0  0  0  0  0  0  0  0
  -30.5628   38.0555   15.3674 C   0  0  0  0  0  0  0  0  0  0  0  0
  -29.9662   37.1251   16.3815 C   0  0  0  0  0  0  0  0  0  0  0  0
  -28.4765   36.9799   16.4811 N   0  0  0  0  0  0  0  0  0  0  0  0
  -27.5836   37.7650   15.5666 C   0  0  0  0  0  0  0  0  0  0  0  0
  -28.1803   38.6954   14.5525 C   0  0  0  0  0  0  0  0  0  0  0  0
  -30.2665   39.7711   13.4388 S   0  0  0  0  0  0  0  0  0  0  0  0
  -29.0449   40.6381   13.5155 O   0  0  0  0  0  0  0  0  0  0  0  0
  -31.4882   38.9040   13.3621 O   0  0  0  0  0  0  0  0  0  0  0  0
  -32.2310   42.8371   11.8608 C   0  0  0  0  0  0  0  0  0  0  0  0
  -32.0566   42.5622   10.3966 C   0  0  0  0  0  0  0  0  0  0  0  0
  -31.2854   41.3569    9.9464 C   0  0  0  0  0  0  0  0  0  0  0  0
  -31.1110   41.0820    8.4822 C   0  0  0  0  0  0  0  0  0  0  0  0
  -30.3398   39.8768    8.0320 C   0  0  0  0  0  0  0  0  0  0  0  0
  -29.7432   38.9464    9.0461 C   0  0  0  0  0  0  0  0  0  0  0  0
  -29.9176   39.2213   10.5103 N   0  0  0  0  0  0  0  0  0  0  0  0
  -30.6887   40.4265   10.9605 C   0  0  0  0  0  0  0  0  0  0  0  0
  -30.8632   40.7014   12.4248 C   0  0  0  0  0  0  0  0  0  0  0  0
  -31.6343   41.9067   12.8749 C   0  0  0  0  0  0  0  0  0  0  0  0
  -27.8798   36.0495   17.4951 C   0  0  0  0  0  0  0  0  0  0  0  0
  -27.4615   34.6671   17.0900 C   0  0  0  0  0  0  0  0  0  0  0  0
  -26.7521   33.7807   18.0703 N   0  0  0  0  0  0  0  0  0  0  0  0
  -26.3338   32.3984   17.6652 S   0  0  0  0  0  0  0  0  0  0  0  0
  -25.7432   31.0223   17.7517 O   0  0  0  0  0  0  0  0  0  0  0  0
  -25.8375   32.4163   19.0806 O   0  0  0  0  0  0  0  0  0  0  0  0
  -26.6250   31.9024   16.2798 C   0  0  0  0  0  0  0  0  0  0  0  0
  -26.2067   30.5200   15.8748 C   0  0  0  0  0  0  0  0  0  0  0  0
  -26.4978   30.0241   14.4894 C   0  0  0  0  0  0  0  0  0  0  0  0
  -27.2073   30.9105   13.5091 C   0  0  0  0  0  0  0  0  0  0  0  0
  -27.6255   32.2929   13.9142 C   0  0  0  0  0  0  0  0  0  0  0  0
  -27.3344   32.7888   15.2996 C   0  0  0  0  0  0  0  0  0  0  0  0
  -27.7527   34.1711   15.7047 N   0  0  0  0  0  0  0  0  0  0  0  0
  -28.3350   33.1793   12.9339 F   0  0  0  0  0  0  0  0  0  0  0  0
 10 11  2  0  0  0
 11 12  1  0  0  0
 12 13  2  0  0  0
 13 14  1  0  0  0
 14 15  2  0  0  0
 15 16  1  0  0  0
 16 17  2  0  0  0
 17 18  1  0  0  0
 18 19  2  0  0  0
 18  7  1  0  0  0
  7  8  2  0  0  0
  7  9  2  0  0  0
  7  1  1  0  0  0
  1  2  1  0  0  0
  2  3  1  0  0  0
  3  4  1  0  0  0
  4  5  1  0  0  0
  5  6  1  0  0  0
  4 20  1  0  0  0
 20 21  1  0  0  0
 21 22  2  0  0  0
 22 23  1  0  0  0
 23 24  2  0  0  0
 23 25  2  0  0  0
 23 26  1  0  0  0
 26 27  2  0  0  0
 27 28  1  0  0  0
 28 29  2  0  0  0
 29 30  1  0  0  0
 30 31  2  0  0  0
 31 32  1  0  0  0
 30 33  1  0  0  0
 19 10  1  0  0  0
 17 12  1  0  0  0
  6  1  1  0  0  0
 32 21  1  0  0  0
 31 26  1  0  0  0
M  END
> <minimizedAffinity>
-5.89082

$$$$



 35 39  0  0  0  0  0  0  0  0999 V2000
  -25.3091   40.5285   16.5130 C   0  0  0  0  0  0  0  0  0  0  0  0
  -24.9697   41.9045   17.0042 C   0  0  0  0  0  0  0  0  0  0  0  0
  -25.1360   43.0871   16.0965 O   0  0  0  0  0  0  0  0  0  0  0  0
  -24.4638   42.0980   18.4030 N   0  0  0  0  0  0  0  0  0  0  0  0
  -24.2975   40.9155   19.3106 C   0  0  0  0  0  0  0  0  0  0  0  0
  -24.6369   39.5393   18.8194 C   0  0  0  0  0  0  0  0  0  0  0  0
  -25.1427   39.3459   17.4206 N   0  0  0  0  0  0  0  0  0  0  0  0
  -23.4712   40.2208   13.8340 C   0  0  0  0  0  0  0  0  0  0  0  0
  -24.9701   40.1936   13.8828 C   0  0  0  0  0  0  0  0  0  0  0  0
  -25.8149   40.3351   15.1141 C   0  0  0  0  0  0  0  0  0  0  0  0
  -27.2544   40.2491   14.7011 C   0  0  0  0  0  0  0  0  0  0  0  0
  -27.2992   40.0545   13.2144 N   0  0  0  0  0  0  0  0  0  0  0  0
  -25.8874   40.0202   12.7087 N   0  0  0  0  0  0  0  0  0  0  0  0
  -28.4408   40.3415   15.6143 C   0  0  0  0  0  0  0  0  0  0  0  0
  -28.5382   39.9182   12.3800 C   0  0  0  0  0  0  0  0  0  0  0  0
  -28.5862   38.9137   11.2670 C   0  0  0  0  0  0  0  0  0  0  0  0
  -29.8252   38.7774   10.4326 C   0  0  0  0  0  0  0  0  0  0  0  0
  -31.0163   39.6454   10.7113 C   0  0  0  0  0  0  0  0  0  0  0  0
  -30.9684   40.6499   11.8243 C   0  0  0  0  0  0  0  0  0  0  0  0
  -29.7293   40.7862   12.6587 C   0  0  0  0  0  0  0  0  0  0  0  0
  -25.4822   37.9699   16.9294 S   0  0  0  0  0  0  0  0  0  0  0  0
  -24.1131   37.8464   16.3291 O   0  0  0  0  0  0  0  0  0  0  0  0
  -26.8512   38.0933   17.5297 O   0  0  0  0  0  0  0  0  0  0  0  0
  -25.8217   36.5938   16.4382 C   0  0  0  0  0  0  0  0  0  0  0  0
  -25.1582   35.3948   17.0482 C   0  0  0  0  0  0  0  0  0  0  0  0
  -25.4977   34.0188   16.5570 C   0  0  0  0  0  0  0  0  0  0  0  0
  -26.5007   33.8418   15.4558 C   0  0  0  0  0  0  0  0  0  0  0  0
  -27.1642   35.0408   14.8458 C   0  0  0  0  0  0  0  0  0  0  0  0
  -26.8247   36.4168   15.3370 C   0  0  0  0  0  0  0  0  0  0  0  0
  -28.1064   34.5586   13.7829 C   0  0  0  0  0  0  0  0  0  0  0  0
  -28.0252   33.0615   13.7360 C   0  0  0  0  0  0  0  0  0  0  0  0
  -27.0329   32.6185   14.7699 N   0  0  0  0  0  0  0  0  0  0  0  0
  -26.6414   31.2011   15.0660 C   0  0  0  0  0  0  0  0  0  0  0  0
  -25.6297   30.9100   16.1345 O   0  0  0  0  0  0  0  0  0  0  0  0
  -27.2616   30.0747   14.2936 C   0  0  0  0  0  0  0  0  0  0  0  0
  8  9  1  0  0  0
  9 10  1  0  0  0
 10 11  2  0  0  0
 11 12  1  0  0  0
 12 13  1  0  0  0
 12 15  1  0  0  0
 15 16  2  0  0  0
 16 17  1  0  0  0
 17 18  2  0  0  0
 18 19  1  0  0  0
 19 20  2  0  0  0
 11 14  1  0  0  0
  1 10  1  0  0  0
  1  2  1  0  0  0
  2  3  2  0  0  0
  2  4  1  0  0  0
  4  5  1  0  0  0
  5  6  1  0  0  0
  6  7  1  0  0  0
  7 21  1  0  0  0
 21 22  2  0  0  0
 21 23  2  0  0  0
 21 24  1  0  0  0
 24 25  2  0  0  0
 25 26  1  0  0  0
 26 27  2  0  0  0
 27 28  1  0  0  0
 28 29  2  0  0  0
 28 30  1  0  0  0
 30 31  1  0  0  0
 31 32  1  0  0  0
 32 33  1  0  0  0
 33 34  2  0  0  0
 33 35  1  0  0  0
 13  9  2  0  0  0
 20 15  1  0  0  0
  7  1  1  0  0  0
 29 24  1  0  0  0
 32 27  1  0  0  0
M  END
> <minimizedAffinity>
-6.09758

$$$$



 36 40  0  0  0  0  0  0  0  0999 V2000
  -27.9634   36.3261   13.7174 C   0  0  0  0  0  0  0  0  0  0  0  0
  -28.6643   36.9992   12.5748 O   0  0  0  0  0  0  0  0  0  0  0  0
  -26.7415   36.9524   14.3214 N   0  0  0  0  0  0  0  0  0  0  0  0
  -26.2206   38.2518   13.7828 C   0  0  0  0  0  0  0  0  0  0  0  0
  -24.9988   38.8781   14.3868 C   0  0  0  0  0  0  0  0  0  0  0  0
  -24.2979   38.2051   15.5295 N   0  0  0  0  0  0  0  0  0  0  0  0
  -24.8188   36.9056   16.0681 C   0  0  0  0  0  0  0  0  0  0  0  0
  -26.0406   36.2792   15.4641 C   0  0  0  0  0  0  0  0  0  0  0  0
  -23.0760   38.8314   16.1335 C   0  0  0  0  0  0  0  0  0  0  0  0
  -22.5551   40.1308   15.5949 O   0  0  0  0  0  0  0  0  0  0  0  0
  -22.3751   38.1582   17.2762 C   0  0  0  0  0  0  0  0  0  0  0  0
  -22.4015   38.7779   18.6419 C   0  0  0  0  0  0  0  0  0  0  0  0
  -21.7007   38.1048   19.7846 O   0  0  0  0  0  0  0  0  0  0  0  0
  -20.9733   36.8120   19.5615 C   0  0  0  0  0  0  0  0  0  0  0  0
  -20.2724   36.1389   20.7041 C   0  0  0  0  0  0  0  0  0  0  0  0
  -19.5451   34.8462   20.4810 C   0  0  0  0  0  0  0  0  0  0  0  0
  -19.5187   34.2265   19.1152 C   0  0  0  0  0  0  0  0  0  0  0  0
  -20.2196   34.8996   17.9726 C   0  0  0  0  0  0  0  0  0  0  0  0
  -20.9469   36.1924   18.1957 C   0  0  0  0  0  0  0  0  0  0  0  0
  -21.6478   36.8655   17.0530 O   0  0  0  0  0  0  0  0  0  0  0  0
  -28.4843   35.0266   14.2561 C   0  0  0  0  0  0  0  0  0  0  0  0
  -29.2300   34.9991   15.5572 N   0  0  0  0  0  0  0  0  0  0  0  0
  -30.4992   35.7838   15.7110 C   0  0  0  0  0  0  0  0  0  0  0  0
  -31.0225   36.5959   14.5636 O   0  0  0  0  0  0  0  0  0  0  0  0
  -31.2450   35.7563   17.0122 C   0  0  0  0  0  0  0  0  0  0  0  0
  -32.6835   36.1312   17.2119 C   0  0  0  0  0  0  0  0  0  0  0  0
  -33.0108   35.9558   18.6652 C   0  0  0  0  0  0  0  0  0  0  0  0
  -31.7744   35.4724   19.3637 C   0  0  0  0  0  0  0  0  0  0  0  0
  -30.6831   35.3492   18.3420 O   0  0  0  0  0  0  0  0  0  0  0  0
  -28.2594   33.7546   13.4935 C   0  0  0  0  0  0  0  0  0  0  0  0
  -26.2961   30.2414   15.5068 C   0  0  0  0  0  0  0  0  0  0  0  0
  -26.0691   31.6288   16.0299 C   0  0  0  0  0  0  0  0  0  0  0  0
  -26.7235   32.7998   15.3589 C   0  0  0  0  0  0  0  0  0  0  0  0
  -27.6049   32.5835   14.1646 C   0  0  0  0  0  0  0  0  0  0  0  0
  -27.8320   31.1962   13.6415 C   0  0  0  0  0  0  0  0  0  0  0  0
  -27.1776   30.0251   14.3125 C   0  0  0  0  0  0  0  0  0  0  0  0
 31 32  2  0  0  0
 32 33  1  0  0  0
 33 34  2  0  0  0
 34 35  1  0  0  0
 35 36  2  0  0  0
 34 30  1  0  0  0
 21 30  1  0  0  0
 21  1  1  0  0  0
  1  2  2  0  0  0
  1  3  1  0  0  0
  3  4  1  0  0  0
  4  5  1  0  0  0
  5  6  1  0  0  0
  6  7  1  0  0  0
  7  8  1  0  0  0
  6  9  1  0  0  0
  9 10  2  0  0  0
 11  9  1  0  0  0
 11 12  1  0  0  0
 12 13  1  0  0  0
 13 14  1  0  0  0
 14 15  2  0  0  0
 15 16  1  0  0  0
 16 17  2  0  0  0
 17 18  1  0  0  0
 18 19  2  0  0  0
 19 20  1  0  0  0
 21 22  1  0  0  0
 22 23  1  0  0  0
 23 24  2  0  0  0
 23 25  1  0  0  0
 25 26  2  0  0  0
 26 27  1  0  0  0
 27 28  2  0  0  0
 28 29  1  0  0  0
 36 31  1  0  0  0
  8  3  1  0  0  0
 20 11  1  0  0  0
 19 14  1  0  0  0
 29 25  1  0  0  0
M  END
> <minimizedAffinity>
-6.43454

$$$$



 35 39  0  0  0  0  0  0  0  0999 V2000
  -25.2724   38.4453   17.2149 C   0  0  0  0  0  0  0  0  0  0  0  0
  -25.6059   37.0605   16.7448 N   0  0  0  0  0  0  0  0  0  0  0  0
  -25.0339   35.8694   17.4548 C   0  0  0  0  0  0  0  0  0  0  0  0
  -25.3673   34.4845   16.9848 C   0  0  0  0  0  0  0  0  0  0  0  0
  -26.2727   34.2907   15.8046 N   0  0  0  0  0  0  0  0  0  0  0  0
  -26.6062   32.9058   15.3346 C   0  0  0  0  0  0  0  0  0  0  0  0
  -26.0342   31.7148   16.0446 C   0  0  0  0  0  0  0  0  0  0  0  0
  -26.3676   30.3299   15.5746 C   0  0  0  0  0  0  0  0  0  0  0  0
  -27.2730   30.1362   14.3944 C   0  0  0  0  0  0  0  0  0  0  0  0
  -27.8450   31.3272   13.6844 C   0  0  0  0  0  0  0  0  0  0  0  0
  -27.5116   32.7120   14.1545 C   0  0  0  0  0  0  0  0  0  0  0  0
  -28.0836   33.9032   13.4444 C   0  0  0  0  0  0  0  0  0  0  0  0
  -27.7501   35.2880   13.9145 C   0  0  0  0  0  0  0  0  0  0  0  0
  -26.8447   35.4818   15.0946 C   0  0  0  0  0  0  0  0  0  0  0  0
  -26.5113   36.8667   15.5647 C   0  0  0  0  0  0  0  0  0  0  0  0
  -28.6555   35.0942   12.7344 C   0  0  0  0  0  0  0  0  0  0  0  0
  -29.2275   36.2854   12.0243 N   0  0  0  0  0  0  0  0  0  0  0  0
  -28.8941   37.6702   12.4944 C   0  0  0  0  0  0  0  0  0  0  0  0
  -29.4661   38.8612   11.7843 O   0  0  0  0  0  0  0  0  0  0  0  0
  -27.9887   37.8640   13.6745 N   0  0  0  0  0  0  0  0  0  0  0  0
  -27.4167   36.6729   14.3845 C   0  0  0  0  0  0  0  0  0  0  0  0
  -26.9675   36.9640   14.9753 O   0  0  0  0  0  0  0  0  0  0  0  0
  -28.9890   33.7094   12.2643 O   0  0  0  0  0  0  0  0  0  0  0  0
  -27.6552   39.2488   14.1446 C   0  0  0  0  0  0  0  0  0  0  0  0
  -26.6724   40.0844   13.3791 C   0  0  0  0  0  0  0  0  0  0  0  0
  -25.3892   40.5142   14.0261 C   0  0  0  0  0  0  0  0  0  0  0  0
  -24.1624   39.6607   13.8986 C   0  0  0  0  0  0  0  0  0  0  0  0
  -22.8791   40.0905   14.5456 C   0  0  0  0  0  0  0  0  0  0  0  0
  -22.8228   41.3739   15.3201 C   0  0  0  0  0  0  0  0  0  0  0  0
  -24.0497   42.2274   15.4476 C   0  0  0  0  0  0  0  0  0  0  0  0
  -25.3329   41.7976   14.8006 C   0  0  0  0  0  0  0  0  0  0  0  0
  -23.9934   43.5107   16.2221 O   0  0  0  0  0  0  0  0  0  0  0  0
  -24.5818   43.5816   17.6000 C   0  0  0  0  0  0  0  0  0  0  0  0
  -21.5396   41.8037   15.9671 O   0  0  0  0  0  0  0  0  0  0  0  0
  -21.2048   41.3361   17.3525 C   0  0  0  0  0  0  0  0  0  0  0  0
  1  2  1  0  0  0
  2  3  1  0  0  0
  3  4  1  0  0  0
  4  5  1  0  0  0
  5  6  1  0  0  0
  6  7  2  0  0  0
  7  8  1  0  0  0
  8  9  2  0  0  0
  9 10  1  0  0  0
 10 11  2  0  0  0
 11 12  1  0  0  0
 13 12  1  0  0  0
 13 14  1  0  0  0
 14 15  1  0  0  0
 13 16  1  0  0  0
 16 17  2  0  0  0
 17 18  1  0  0  0
 18 19  2  0  0  0
 18 20  1  0  0  0
 20 21  1  0  0  0
 21 22  2  0  0  0
 20 24  1  0  0  0
 24 25  1  0  0  0
 25 26  1  0  0  0
 26 27  2  0  0  0
 27 28  1  0  0  0
 28 29  2  0  0  0
 29 30  1  0  0  0
 30 31  2  0  0  0
 30 32  1  0  0  0
 32 33  1  0  0  0
 29 34  1  0  0  0
 34 35  1  0  0  0
 16 23  1  0  0  0
 15  2  1  0  0  0
 14  5  1  0  0  0
 11  6  1  0  0  0
 21 13  1  0  0  0
 31 26  1  0  0  0
M  CHG 1   2   1
M  CHG 1  23  -1
M  END
> <minimizedAffinity>
-6.49575

$$$$



 34 38  0  0  0  0  0  0  0  0999 V2000
  -27.7144   37.9451   12.4865 C   0  0  0  0  0  0  0  0  0  0  0  0
  -27.9939   38.5576   11.1461 O   0  0  0  0  0  0  0  0  0  0  0  0
  -26.6027   38.4811   13.3389 N   0  0  0  0  0  0  0  0  0  0  0  0
  -25.7704   39.6296   12.8510 C   0  0  0  0  0  0  0  0  0  0  0  0
  -24.6586   40.1656   13.7035 C   0  0  0  0  0  0  0  0  0  0  0  0
  -24.3791   39.5531   15.0439 C   0  0  0  0  0  0  0  0  0  0  0  0
  -25.2115   38.4045   15.5318 C   0  0  0  0  0  0  0  0  0  0  0  0
  -26.3232   37.8685   14.6793 C   0  0  0  0  0  0  0  0  0  0  0  0
  -23.2674   40.0891   15.8963 N   0  0  0  0  0  0  0  0  0  0  0  0
  -23.0199   41.5334   16.2168 C   0  0  0  0  0  0  0  0  0  0  0  0
  -23.7419   42.7873   15.8213 C   0  0  0  0  0  0  0  0  0  0  0  0
  -23.2515   44.1196   16.3055 C   0  0  0  0  0  0  0  0  0  0  0  0
  -22.0391   44.1980   17.1852 C   0  0  0  0  0  0  0  0  0  0  0  0
  -21.3171   42.9441   17.5807 C   0  0  0  0  0  0  0  0  0  0  0  0
  -21.8075   41.6119   17.0966 C   0  0  0  0  0  0  0  0  0  0  0  0
  -21.3057   40.2160   17.3197 N   0  0  0  0  0  0  0  0  0  0  0  0
  -22.2079   39.2749   16.5780 C   0  0  0  0  0  0  0  0  0  0  0  0
  -22.0742   37.7817   16.5268 O   0  0  0  0  0  0  0  0  0  0  0  0
  -30.0729   35.7350   14.7894 C   0  0  0  0  0  0  0  0  0  0  0  0
  -30.2113   34.4993   13.9503 C   0  0  0  0  0  0  0  0  0  0  0  0
  -29.5174   34.4123   12.6233 C   0  0  0  0  0  0  0  0  0  0  0  0
  -28.6851   35.5608   12.1354 C   0  0  0  0  0  0  0  0  0  0  0  0
  -28.5467   36.7966   12.9744 C   0  0  0  0  0  0  0  0  0  0  0  0
  -29.2406   36.8836   14.3014 C   0  0  0  0  0  0  0  0  0  0  0  0
  -30.7668   35.8220   16.1164 S   0  0  0  0  0  0  0  0  0  0  0  0
  -29.8117   34.8131   16.6820 O   0  0  0  0  0  0  0  0  0  0  0  0
  -31.7219   36.8310   15.5508 O   0  0  0  0  0  0  0  0  0  0  0  0
  -33.5424   36.1701   21.4244 C   0  0  0  0  0  0  0  0  0  0  0  0
  -32.8485   36.0831   20.0974 N   0  0  0  0  0  0  0  0  0  0  0  0
  -31.3848   35.7606   20.0362 C   0  0  0  0  0  0  0  0  0  0  0  0
  -30.6909   35.6736   18.7091 C   0  0  0  0  0  0  0  0  0  0  0  0
  -31.4607   35.9091   17.4434 N   0  0  0  0  0  0  0  0  0  0  0  0
  -32.9243   36.2315   17.5047 C   0  0  0  0  0  0  0  0  0  0  0  0
  -33.6183   36.3186   18.8317 C   0  0  0  0  0  0  0  0  0  0  0  0
 28 29  1  0  0  0
 29 30  1  0  0  0
 30 31  1  0  0  0
 31 32  1  0  0  0
 32 33  1  0  0  0
 33 34  1  0  0  0
 32 25  1  0  0  0
 25 26  2  0  0  0
 25 27  2  0  0  0
 25 19  1  0  0  0
 19 20  2  0  0  0
 20 21  1  0  0  0
 21 22  2  0  0  0
 22 23  1  0  0  0
 23 24  2  0  0  0
 23  1  1  0  0  0
  1  2  2  0  0  0
  1  3  1  0  0  0
  3  4  1  0  0  0
  4  5  1  0  0  0
  5  6  1  0  0  0
  6  7  1  0  0  0
  7  8  1  0  0  0
  6  9  1  0  0  0
  9 10  1  0  0  0
 10 11  2  0  0  0
 11 12  1  0  0  0
 12 13  2  0  0  0
 13 14  1  0  0  0
 14 15  2  0  0  0
 15 16  1  0  0  0
 16 17  1  0  0  0
 17 18  2  0  0  0
 34 29  1  0  0  0
 24 19  1  0  0  0
  8  3  1  0  0  0
 17  9  1  0  0  0
 15 10  1  0  0  0
M  END
> <minimizedAffinity>
-6.38955

$$$$



 35 39  0  0  0  0  0  0  0  0999 V2000
  -27.1054   31.1005   13.6831 C   0  0  0  0  0  0  0  0  0  0  0  0
  -26.1444   30.5520   14.6957 C   0  0  0  0  0  0  0  0  0  0  0  0
  -25.7725   31.3699   15.8968 C   0  0  0  0  0  0  0  0  0  0  0  0
  -26.3616   32.7364   16.0852 C   0  0  0  0  0  0  0  0  0  0  0  0
  -27.3227   33.2849   15.0726 C   0  0  0  0  0  0  0  0  0  0  0  0
  -27.6946   32.4670   13.8716 C   0  0  0  0  0  0  0  0  0  0  0  0
  -27.7390   34.6540   15.5227 C   0  0  0  0  0  0  0  0  0  0  0  0
  -27.0352   34.9515   16.8135 C   0  0  0  0  0  0  0  0  0  0  0  0
  -26.1839   33.7664   17.1611 N   0  0  0  0  0  0  0  0  0  0  0  0
  -28.6918   35.5654   14.8075 C   0  0  0  0  0  0  0  0  0  0  0  0
  -28.1732   36.5619   13.8135 C   0  0  0  0  0  0  0  0  0  0  0  0
  -26.7017   36.6469   13.5348 C   0  0  0  0  0  0  0  0  0  0  0  0
  -25.7489   35.7355   14.2499 O   0  0  0  0  0  0  0  0  0  0  0  0
  -26.1831   37.6434   12.5408 N   0  0  0  0  0  0  0  0  0  0  0  0
  -27.1359   38.5549   11.8255 C   0  0  0  0  0  0  0  0  0  0  0  0
  -26.6173   39.5514   10.8315 O   0  0  0  0  0  0  0  0  0  0  0  0
  -28.6073   38.4698   12.1043 N   0  0  0  0  0  0  0  0  0  0  0  0
  -29.1259   37.4733   13.0983 C   0  0  0  0  0  0  0  0  0  0  0  0
  -30.5973   37.3883   13.3772 O   0  0  0  0  0  0  0  0  0  0  0  0
  -29.5601   39.3812   11.3892 C   0  0  0  0  0  0  0  0  0  0  0  0
  -30.0205   39.0455   10.0016 C   0  0  0  0  0  0  0  0  0  0  0  0
  -30.9733   39.9570    9.2865 C   0  0  0  0  0  0  0  0  0  0  0  0
  -31.4658   41.2042    9.9589 C   0  0  0  0  0  0  0  0  0  0  0  0
  -31.0054   41.5398   11.3465 C   0  0  0  0  0  0  0  0  0  0  0  0
  -30.0526   40.6283   12.0616 C   0  0  0  0  0  0  0  0  0  0  0  0
  -29.5922   40.9641   13.4492 F   0  0  0  0  0  0  0  0  0  0  0  0
  -25.3086   33.6344   18.3721 C   0  0  0  0  0  0  0  0  0  0  0  0
  -24.6821   34.8536   18.9812 C   0  0  0  0  0  0  0  0  0  0  0  0
  -25.4084   35.6159   20.0495 O   0  0  0  0  0  0  0  0  0  0  0  0
  -23.3293   35.3106   18.5219 N   0  0  0  0  0  0  0  0  0  0  0  0
  -22.7027   36.5299   19.1310 C   0  0  0  0  0  0  0  0  0  0  0  0
  -21.3499   36.9868   18.6717 C   0  0  0  0  0  0  0  0  0  0  0  0
  -20.6235   36.2247   17.6034 O   0  0  0  0  0  0  0  0  0  0  0  0
  -21.2500   35.0054   16.9943 C   0  0  0  0  0  0  0  0  0  0  0  0
  -22.6029   34.5484   17.4536 C   0  0  0  0  0  0  0  0  0  0  0  0
  1  2  2  0  0  0
  2  3  1  0  0  0
  3  4  2  0  0  0
  4  5  1  0  0  0
  5  6  2  0  0  0
  5  7  1  0  0  0
  7  8  2  0  0  0
  8  9  1  0  0  0
  9 27  1  0  0  0
 27 28  1  0  0  0
 28 29  2  0  0  0
 28 30  1  0  0  0
 30 31  1  0  0  0
 31 32  1  0  0  0
 32 33  1  0  0  0
 33 34  1  0  0  0
 34 35  1  0  0  0
  7 10  1  0  0  0
 10 11  2  0  0  0
 11 12  1  0  0  0
 12 13  2  0  0  0
 12 14  1  0  0  0
 14 15  1  0  0  0
 15 16  2  0  0  0
 15 17  1  0  0  0
 17 18  1  0  0  0
 18 19  2  0  0  0
 17 20  1  0  0  0
 20 21  2  0  0  0
 21 22  1  0  0  0
 22 23  2  0  0  0
 23 24  1  0  0  0
 24 25  2  0  0  0
 25 26  1  0  0  0
  6  1  1  0  0  0
  9  4  1  0  0  0
 35 30  1  0  0  0
 18 11  1  0  0  0
 25 20  1  0  0  0
M  END
> <minimizedAffinity>
-6.06790

$$$$



 31 34  0  0  0  0  0  0  0  0999 V2000
  -27.5836   31.9362   13.9717 C   0  0  0  0  0  0  0  0  0  0  0  0
  -27.2953   32.4258   15.3599 N   0  0  0  0  0  0  0  0  0  0  0  0
  -26.9020   31.2440   16.1959 C   0  0  0  0  0  0  0  0  0  0  0  0
  -26.9473   30.0240   15.3243 C   0  0  0  0  0  0  0  0  0  0  0  0
  -27.3686   30.4518   13.9497 S   0  0  0  0  0  0  0  0  0  0  0  0
  -26.5289   31.2765   17.6484 C   0  0  0  0  0  0  0  0  0  0  0  0
  -27.1676   30.3171   18.6084 O   0  0  0  0  0  0  0  0  0  0  0  0
  -25.5172   32.2682   18.1408 N   0  0  0  0  0  0  0  0  0  0  0  0
  -24.8784   33.2277   17.1808 C   0  0  0  0  0  0  0  0  0  0  0  0
  -23.8666   34.2195   17.6732 C   0  0  0  0  0  0  0  0  0  0  0  0
  -23.4936   34.2520   19.1257 N   0  0  0  0  0  0  0  0  0  0  0  0
  -24.1323   33.2926   20.0858 C   0  0  0  0  0  0  0  0  0  0  0  0
  -25.1441   32.3007   19.5933 C   0  0  0  0  0  0  0  0  0  0  0  0
  -22.4818   35.2438   19.6182 C   0  0  0  0  0  0  0  0  0  0  0  0
  -22.1087   35.2763   21.0708 O   0  0  0  0  0  0  0  0  0  0  0  0
  -21.8430   36.2032   18.6582 C   0  0  0  0  0  0  0  0  0  0  0  0
  -20.6398   35.9278   17.8059 C   0  0  0  0  0  0  0  0  0  0  0  0
  -20.3486   37.1608   17.0029 C   0  0  0  0  0  0  0  0  0  0  0  0
  -21.3717   38.1982   17.3590 C   0  0  0  0  0  0  0  0  0  0  0  0
  -22.2954   37.6065   18.3821 O   0  0  0  0  0  0  0  0  0  0  0  0
  -28.0118   32.7824   12.8095 N   0  0  0  0  0  0  0  0  0  0  0  0
  -29.7070   36.8898   13.5207 C   0  0  0  0  0  0  0  0  0  0  0  0
  -28.2927   36.7340   13.0458 C   0  0  0  0  0  0  0  0  0  0  0  0
  -27.7277   35.3649   12.8087 C   0  0  0  0  0  0  0  0  0  0  0  0
  -28.5769   34.1515   13.0466 C   0  0  0  0  0  0  0  0  0  0  0  0
  -29.9911   34.3073   13.5215 C   0  0  0  0  0  0  0  0  0  0  0  0
  -30.5562   35.6765   13.7585 C   0  0  0  0  0  0  0  0  0  0  0  0
  -30.8371   39.6281   13.9948 C   0  0  0  0  0  0  0  0  0  0  0  0
  -30.2720   38.2590   13.7577 S   0  0  0  0  0  0  0  0  0  0  0  0
  -31.2932   37.6762   14.6892 O   0  0  0  0  0  0  0  0  0  0  0  0
  -29.2509   38.8417   12.8262 O   0  0  0  0  0  0  0  0  0  0  0  0
 28 29  1  0  0  0
 29 30  2  0  0  0
 29 31  2  0  0  0
 29 22  1  0  0  0
 22 23  2  0  0  0
 23 24  1  0  0  0
 24 25  2  0  0  0
 25 26  1  0  0  0
 26 27  2  0  0  0
 25 21  1  0  0  0
 21  1  1  0  0  0
  1  2  2  0  0  0
  2  3  1  0  0  0
  3  4  2  0  0  0
  4  5  1  0  0  0
  3  6  1  0  0  0
  6  7  2  0  0  0
  6  8  1  0  0  0
  8  9  1  0  0  0
  9 10  1  0  0  0
 10 11  1  0  0  0
 11 12  1  0  0  0
 12 13  1  0  0  0
 11 14  1  0  0  0
 14 15  2  0  0  0
 14 16  1  0  0  0
 16 17  2  0  0  0
 17 18  1  0  0  0
 18 19  2  0  0  0
 19 20  1  0  0  0
 27 22  1  0  0  0
  5  1  1  0  0  0
 13  8  1  0  0  0
 20 16  1  0  0  0
M  END
> <minimizedAffinity>
-6.07810

$$$$



 34 37  0  0  0  0  0  0  0  0999 V2000
  -24.3813   41.4463   15.4092 N   0  0  0  0  0  0  0  0  0  0  0  0
  -24.8473   42.8413   15.1143 C   0  0  0  0  0  0  0  0  0  0  0  0
  -23.8922   43.7967   15.7665 C   0  0  0  0  0  0  0  0  0  0  0  0
  -22.8360   42.9921   16.4644 O   0  0  0  0  0  0  0  0  0  0  0  0
  -23.1382   41.5395   16.2436 C   0  0  0  0  0  0  0  0  0  0  0  0
  -23.5651   40.1340   15.9398 C   0  0  0  0  0  0  0  0  0  0  0  0
  -22.7649   38.9778   16.4618 C   0  0  0  0  0  0  0  0  0  0  0  0
  -21.5376   39.2269   17.2875 N   0  0  0  0  0  0  0  0  0  0  0  0
  -21.1107   40.6324   17.5913 C   0  0  0  0  0  0  0  0  0  0  0  0
  -21.9110   41.7887   17.0693 C   0  0  0  0  0  0  0  0  0  0  0  0
  -20.7373   38.0705   17.8094 C   0  0  0  0  0  0  0  0  0  0  0  0
  -19.5101   38.3197   18.6352 O   0  0  0  0  0  0  0  0  0  0  0  0
  -25.0423   40.1804   14.9503 S   0  0  0  0  0  0  0  0  0  0  0  0
  -24.2298   40.2132   13.6898 O   0  0  0  0  0  0  0  0  0  0  0  0
  -25.8547   40.1477   16.2108 O   0  0  0  0  0  0  0  0  0  0  0  0
  -27.6863   35.1168   13.1147 C   0  0  0  0  0  0  0  0  0  0  0  0
  -27.0252   36.3828   13.5736 C   0  0  0  0  0  0  0  0  0  0  0  0
  -25.9186   36.9879   12.7618 C   0  0  0  0  0  0  0  0  0  0  0  0
  -25.2576   38.2538   13.2206 C   0  0  0  0  0  0  0  0  0  0  0  0
  -25.7032   38.9145   14.4914 C   0  0  0  0  0  0  0  0  0  0  0  0
  -26.8099   38.3094   15.3033 C   0  0  0  0  0  0  0  0  0  0  0  0
  -27.4709   37.0435   14.8444 C   0  0  0  0  0  0  0  0  0  0  0  0
  -21.1643   36.6651   17.5057 C   0  0  0  0  0  0  0  0  0  0  0  0
  -20.4151   35.8571   16.4879 O   0  0  0  0  0  0  0  0  0  0  0  0
  -22.3404   36.0675   18.2197 N   0  0  0  0  0  0  0  0  0  0  0  0
  -22.7673   34.6621   17.9159 C   0  0  0  0  0  0  0  0  0  0  0  0
  -24.1766   34.3830   17.4848 C   0  0  0  0  0  0  0  0  0  0  0  0
  -24.4544   33.3011   16.4835 C   0  0  0  0  0  0  0  0  0  0  0  0
  -25.8637   33.0220   16.0524 C   0  0  0  0  0  0  0  0  0  0  0  0
  -26.9953   33.8248   16.6225 C   0  0  0  0  0  0  0  0  0  0  0  0
  -26.7176   34.9066   17.6237 C   0  0  0  0  0  0  0  0  0  0  0  0
  -25.3083   35.1857   18.0549 C   0  0  0  0  0  0  0  0  0  0  0  0
  -25.0306   36.2675   19.0561 O   0  0  0  0  0  0  0  0  0  0  0  0
  -25.5704   37.6496   18.8361 C   0  0  0  0  0  0  0  0  0  0  0  0
 16 17  1  0  0  0
 17 18  2  0  0  0
 18 19  1  0  0  0
 19 20  2  0  0  0
 20 21  1  0  0  0
 21 22  2  0  0  0
 20 13  1  0  0  0
 13 14  2  0  0  0
 13 15  2  0  0  0
 13  1  1  0  0  0
  1  2  1  0  0  0
  2  3  1  0  0  0
  3  4  1  0  0  0
  4  5  1  0  0  0
  5  6  1  0  0  0
  6  7  1  0  0  0
  7  8  1  0  0  0
  8  9  1  0  0  0
  9 10  1  0  0  0
  8 11  1  0  0  0
 11 12  2  0  0  0
 11 23  1  0  0  0
 23 24  2  0  0  0
 23 25  1  0  0  0
 25 26  1  0  0  0
 26 27  1  0  0  0
 27 28  2  0  0  0
 28 29  1  0  0  0
 29 30  2  0  0  0
 30 31  1  0  0  0
 31 32  2  0  0  0
 32 33  1  0  0  0
 33 34  1  0  0  0
 22 17  1  0  0  0
  5  1  1  0  0  0
 10  5  1  0  0  0
 32 27  1  0  0  0
M  END
> <minimizedAffinity>
-4.66589

$$$$



 31 34  0  0  0  0  0  0  0  0999 V2000
  -27.7803   35.2352   16.7274 C   0  0  0  0  0  0  0  0  0  0  0  0
  -28.6088   34.0928   17.2358 O   0  0  0  0  0  0  0  0  0  0  0  0
  -28.3712   36.2184   15.7608 N   0  0  0  0  0  0  0  0  0  0  0  0
  -29.7906   36.0591   15.3026 C   0  0  0  0  0  0  0  0  0  0  0  0
  -30.3815   37.0423   14.3361 C   0  0  0  0  0  0  0  0  0  0  0  0
  -29.5529   38.1847   13.8277 C   0  0  0  0  0  0  0  0  0  0  0  0
  -28.1335   38.3439   14.2859 C   0  0  0  0  0  0  0  0  0  0  0  0
  -27.5427   37.3608   15.2524 C   0  0  0  0  0  0  0  0  0  0  0  0
  -28.8502   39.3706   13.2361 N   0  0  0  0  0  0  0  0  0  0  0  0
  -29.8133   40.0734   12.3257 C   0  0  0  0  0  0  0  0  0  0  0  0
  -31.1112   39.3219   12.3548 C   0  0  0  0  0  0  0  0  0  0  0  0
  -30.9503   38.1546   13.2830 O   0  0  0  0  0  0  0  0  0  0  0  0
  -25.2531   35.4839   16.1781 N   0  0  0  0  0  0  0  0  0  0  0  0
  -26.3609   35.3944   17.1856 C   0  0  0  0  0  0  0  0  0  0  0  0
  -26.0492   35.4642   18.6511 O   0  0  0  0  0  0  0  0  0  0  0  0
  -20.9949   35.9617   17.5526 C   0  0  0  0  0  0  0  0  0  0  0  0
  -21.4853   34.6248   17.0810 C   0  0  0  0  0  0  0  0  0  0  0  0
  -22.9047   34.4655   16.6228 C   0  0  0  0  0  0  0  0  0  0  0  0
  -23.8338   35.6431   16.6362 C   0  0  0  0  0  0  0  0  0  0  0  0
  -23.3434   36.9800   17.1078 C   0  0  0  0  0  0  0  0  0  0  0  0
  -21.9240   37.1393   17.5660 C   0  0  0  0  0  0  0  0  0  0  0  0
  -24.2725   38.1575   17.1212 C   0  0  0  0  0  0  0  0  0  0  0  0
  -25.2015   39.3351   17.1346 N   0  0  0  0  0  0  0  0  0  0  0  0
  -27.4333   39.7815   13.5072 S   0  0  0  0  0  0  0  0  0  0  0  0
  -26.9688   38.9392   12.3562 O   0  0  0  0  0  0  0  0  0  0  0  0
  -27.8978   40.6238   14.6582 O   0  0  0  0  0  0  0  0  0  0  0  0
  -26.0164   40.1924   13.7783 C   0  0  0  0  0  0  0  0  0  0  0  0
  -24.7864   39.4321   13.3797 C   0  0  0  0  0  0  0  0  0  0  0  0
  -23.5905   40.2055   13.8506 C   0  0  0  0  0  0  0  0  0  0  0  0
  -24.0815   41.4438   14.5403 C   0  0  0  0  0  0  0  0  0  0  0  0
  -25.5808   41.4357   14.4956 S   0  0  0  0  0  0  0  0  0  0  0  0
 16 17  2  0  0  0
 17 18  1  0  0  0
 18 19  2  0  0  0
 19 20  1  0  0  0
 20 21  2  0  0  0
 20 22  1  0  0  0
 22 23  3  0  0  0
 19 13  1  0  0  0
 13 14  1  0  0  0
 14 15  2  0  0  0
 14  1  1  0  0  0
  1  2  2  0  0  0
  1  3  1  0  0  0
  3  4  1  0  0  0
  4  5  1  0  0  0
  5  6  1  0  0  0
  6  7  1  0  0  0
  7  8  1  0  0  0
  6  9  1  0  0  0
  9 10  1  0  0  0
 10 11  1  0  0  0
 11 12  1  0  0  0
  9 24  1  0  0  0
 24 25  2  0  0  0
 24 26  2  0  0  0
 24 27  1  0  0  0
 27 28  2  0  0  0
 28 29  1  0  0  0
 29 30  2  0  0  0
 30 31  1  0  0  0
 21 16  1  0  0  0
  8  3  1  0  0  0
 12  6  1  0  0  0
 31 27  1  0  0  0
M  END
> <minimizedAffinity>
-5.10810

$$$$



 32 35  0  0  0  0  0  0  0  0999 V2000
  -24.9916   36.0390   18.8552 C   0  0  0  0  0  0  0  0  0  0  0  0
  -28.4657   34.7084   13.4120 C   0  0  0  0  0  0  0  0  0  0  0  0
  -27.6865   33.7612   14.2756 C   0  0  0  0  0  0  0  0  0  0  0  0
  -26.9585   34.2731   15.4830 C   0  0  0  0  0  0  0  0  0  0  0  0
  -26.1794   33.3258   16.3466 C   0  0  0  0  0  0  0  0  0  0  0  0
  -26.1283   31.8667   16.0026 C   0  0  0  0  0  0  0  0  0  0  0  0
  -26.8563   31.3548   14.7952 C   0  0  0  0  0  0  0  0  0  0  0  0
  -27.6354   32.3021   13.9317 C   0  0  0  0  0  0  0  0  0  0  0  0
  -26.2578   30.0755   15.3002 C   0  0  0  0  0  0  0  0  0  0  0  0
  -27.3764   30.3986   13.7631 C   0  0  0  0  0  0  0  0  0  0  0  0
  -26.1393   34.7507   16.8136 C   0  0  0  0  0  0  0  0  0  0  0  0
  -26.8201   35.9138   16.1552 O   0  0  0  0  0  0  0  0  0  0  0  0
  -25.2988   34.8083   18.0547 N   0  0  0  0  0  0  0  0  0  0  0  0
  -24.8194   33.4189   18.3547 C   0  0  0  0  0  0  0  0  0  0  0  0
  -23.9487   33.0164   19.5079 O   0  0  0  0  0  0  0  0  0  0  0  0
  -25.3637   32.5027   17.2990 N   0  0  0  0  0  0  0  0  0  0  0  0
  -24.6753   37.3283   18.1569 C   0  0  0  0  0  0  0  0  0  0  0  0
  -25.7581   38.3395   17.9221 O   0  0  0  0  0  0  0  0  0  0  0  0
  -23.2761   37.6066   17.6933 N   0  0  0  0  0  0  0  0  0  0  0  0
  -22.1932   36.5954   17.9280 C   0  0  0  0  0  0  0  0  0  0  0  0
  -21.8144   35.4781   17.0017 C   0  0  0  0  0  0  0  0  0  0  0  0
  -20.6862   34.7162   17.6315 C   0  0  0  0  0  0  0  0  0  0  0  0
  -20.3677   35.3627   18.9470 S   0  0  0  0  0  0  0  0  0  0  0  0
  -19.3241   34.2895   19.0430 O   0  0  0  0  0  0  0  0  0  0  0  0
  -19.8312   35.7848   20.2826 O   0  0  0  0  0  0  0  0  0  0  0  0
  -21.2992   36.5241   19.1303 C   0  0  0  0  0  0  0  0  0  0  0  0
  -22.9598   38.8959   16.9950 C   0  0  0  0  0  0  0  0  0  0  0  0
  -23.5133   39.1632   15.6267 C   0  0  0  0  0  0  0  0  0  0  0  0
  -23.1795   40.3371   14.7545 C   0  0  0  0  0  0  0  0  0  0  0  0
  -23.9578   40.2030   13.4792 C   0  0  0  0  0  0  0  0  0  0  0  0
  -24.7726   38.9464   13.5633 C   0  0  0  0  0  0  0  0  0  0  0  0
  -24.4978   38.3038   14.8905 O   0  0  0  0  0  0  0  0  0  0  0  0
  3  2  1  0  0  0
  3  4  1  0  0  0
  5  4  1  0  0  0
  5  6  1  0  0  0
  6  7  1  0  0  0
  7  8  1  0  0  0
  7  9  1  0  0  0
  7 10  1  0  0  0
  5 11  1  0  0  0
 11 12  2  0  0  0
 11 13  1  0  0  0
 13 14  1  0  0  0
 14 15  2  0  0  0
 14 16  1  0  0  0
 13  1  1  0  0  0
  1 17  1  0  0  0
 17 18  2  0  0  0
 17 19  1  0  0  0
 19 27  1  0  0  0
 27 28  1  0  0  0
 28 29  2  0  0  0
 29 30  1  0  0  0
 30 31  2  0  0  0
 31 32  1  0  0  0
 20 19  1  0  0  0
 20 21  1  0  0  0
 21 22  1  0  0  0
 22 23  1  0  0  0
 23 24  2  0  0  0
 23 25  2  0  0  0
 23 26  1  0  0  0
  8  3  1  0  0  0
 16  5  1  0  0  0
 32 28  1  0  0  0
 26 20  1  0  0  0
M  END
> <minimizedAffinity>
-6.10062

$$$$



 35 39  0  0  0  0  0  0  0  0999 V2000
  -27.0928   40.5587   14.4520 C   0  0  0  0  0  0  0  0  0  0  0  0
  -28.3685   40.4463   15.2328 C   0  0  0  0  0  0  0  0  0  0  0  0
  -29.3434   39.6510   14.4161 N   0  0  0  0  0  0  0  0  0  0  0  0
  -28.6701   39.2718   13.1305 C   0  0  0  0  0  0  0  0  0  0  0  0
  -27.2791   39.8328   13.1527 C   0  0  0  0  0  0  0  0  0  0  0  0
  -26.3620   39.6101   11.9868 C   0  0  0  0  0  0  0  0  0  0  0  0
  -26.8358   38.8265   10.7988 C   0  0  0  0  0  0  0  0  0  0  0  0
  -28.2267   38.2655   10.7766 C   0  0  0  0  0  0  0  0  0  0  0  0
  -29.1438   38.4881   11.9425 C   0  0  0  0  0  0  0  0  0  0  0  0
  -22.1177   43.4112   16.2162 H   0  0  0  0  0  0  0  0  0  0  0  0
  -23.3615   42.6981   15.7751 N   0  0  0  0  0  0  0  0  0  0  0  0
  -23.5457   41.2441   16.0949 C   0  0  0  0  0  0  0  0  0  0  0  0
  -24.7895   40.5309   15.6538 C   0  0  0  0  0  0  0  0  0  0  0  0
  -25.8490   41.2718   14.8930 C   0  0  0  0  0  0  0  0  0  0  0  0
  -24.9738   39.0771   15.9735 C   0  0  0  0  0  0  0  0  0  0  0  0
  -26.2176   38.3639   15.5325 O   0  0  0  0  0  0  0  0  0  0  0  0
  -23.9143   38.3363   16.7343 N   0  0  0  0  0  0  0  0  0  0  0  0
  -22.6706   39.0494   17.1753 C   0  0  0  0  0  0  0  0  0  0  0  0
  -22.4863   40.5033   16.8556 N   0  0  0  0  0  0  0  0  0  0  0  0
  -21.1646   40.9374   17.4167 N   0  0  0  0  0  0  0  0  0  0  0  0
  -20.5322   39.7518   18.0832 C   0  0  0  0  0  0  0  0  0  0  0  0
  -21.4629   38.5849   17.9340 S   0  0  0  0  0  0  0  0  0  0  0  0
  -19.2024   39.7358   18.7771 S   0  0  0  0  0  0  0  0  0  0  0  0
  -19.3783   38.2774   19.0805 O   0  0  0  0  0  0  0  0  0  0  0  0
  -19.0265   41.1942   18.4737 O   0  0  0  0  0  0  0  0  0  0  0  0
  -17.8726   39.7198   19.4710 C   0  0  0  0  0  0  0  0  0  0  0  0
  -30.7454   39.2969   14.8150 C   0  0  0  0  0  0  0  0  0  0  0  0
  -30.9908   38.1655   15.7688 C   0  0  0  0  0  0  0  0  0  0  0  0
  -31.2050   36.7763   15.2452 O   0  0  0  0  0  0  0  0  0  0  0  0
  -30.1132   36.0853   14.4834 C   0  0  0  0  0  0  0  0  0  0  0  0
  -30.4486   35.2516   13.2823 C   0  0  0  0  0  0  0  0  0  0  0  0
  -29.3568   34.5606   12.5204 C   0  0  0  0  0  0  0  0  0  0  0  0
  -27.9296   34.7033   12.9595 C   0  0  0  0  0  0  0  0  0  0  0  0
  -27.5942   35.5369   14.1606 C   0  0  0  0  0  0  0  0  0  0  0  0
  -28.6860   36.2280   14.9225 C   0  0  0  0  0  0  0  0  0  0  0  0
 10 11  1  0  0  0
 11 12  2  0  0  0
 12 13  1  0  0  0
 13 14  2  0  0  0
 14  1  1  0  0  0
  1  2  2  0  0  0
  2  3  1  0  0  0
  3  4  1  0  0  0
  4  5  2  0  0  0
  5  6  1  0  0  0
  6  7  2  0  0  0
  7  8  1  0  0  0
  8  9  2  0  0  0
  3 27  1  0  0  0
 27 28  1  0  0  0
 28 29  1  0  0  0
 29 30  1  0  0  0
 30 31  2  0  0  0
 31 32  1  0  0  0
 32 33  2  0  0  0
 33 34  1  0  0  0
 34 35  2  0  0  0
 13 15  1  0  0  0
 15 16  2  0  0  0
 15 17  1  0  0  0
 17 18  2  0  0  0
 18 19  1  0  0  0
 19 20  1  0  0  0
 20 21  2  0  0  0
 21 22  1  0  0  0
 21 23  1  0  0  0
 23 24  2  0  0  0
 23 25  2  0  0  0
 23 26  1  0  0  0
 19 12  1  0  0  0
  5  1  1  0  0  0
  9  4  1  0  0  0
 35 30  1  0  0  0
 22 18  1  0  0  0
M  END
> <minimizedAffinity>
-5.32353

$$$$



 32 35  0  0  0  0  0  0  0  0999 V2000
  -24.1100   39.3612   15.1461 N   0  0  0  0  0  0  0  0  0  0  0  0
  -24.9650   38.2058   15.5753 C   0  0  0  0  0  0  0  0  0  0  0  0
  -26.1181   37.7683   14.7216 C   0  0  0  0  0  0  0  0  0  0  0  0
  -26.4162   38.4860   13.4385 N   0  0  0  0  0  0  0  0  0  0  0  0
  -25.5612   39.6413   13.0093 C   0  0  0  0  0  0  0  0  0  0  0  0
  -24.4081   40.0789   13.8632 C   0  0  0  0  0  0  0  0  0  0  0  0
  -27.5693   38.0484   12.5848 C   0  0  0  0  0  0  0  0  0  0  0  0
  -27.8673   38.7662   11.3019 O   0  0  0  0  0  0  0  0  0  0  0  0
  -22.6082   41.2541   16.1008 C   0  0  0  0  0  0  0  0  0  0  0  0
  -21.4552   41.6916   16.9546 C   0  0  0  0  0  0  0  0  0  0  0  0
  -20.6508   40.6737   17.7075 C   0  0  0  0  0  0  0  0  0  0  0  0
  -20.9994   39.2184   17.6066 C   0  0  0  0  0  0  0  0  0  0  0  0
  -22.1525   38.7809   16.7528 C   0  0  0  0  0  0  0  0  0  0  0  0
  -22.9569   39.7987   15.9999 C   0  0  0  0  0  0  0  0  0  0  0  0
  -23.8587   43.5304   16.0315 C   0  0  0  0  0  0  0  0  0  0  0  0
  -23.4126   42.2720   15.3479 O   0  0  0  0  0  0  0  0  0  0  0  0
  -28.4243   36.8931   13.0140 C   0  0  0  0  0  0  0  0  0  0  0  0
  -28.5558   35.6884   12.1302 C   0  0  0  0  0  0  0  0  0  0  0  0
  -29.4108   34.5330   12.5594 C   0  0  0  0  0  0  0  0  0  0  0  0
  -30.1343   34.5825   13.8724 C   0  0  0  0  0  0  0  0  0  0  0  0
  -30.0027   35.7872   14.7562 C   0  0  0  0  0  0  0  0  0  0  0  0
  -29.1477   36.9425   14.3270 C   0  0  0  0  0  0  0  0  0  0  0  0
  -30.7262   35.8367   16.0694 S   0  0  0  0  0  0  0  0  0  0  0  0
  -29.7740   34.8235   16.6321 O   0  0  0  0  0  0  0  0  0  0  0  0
  -31.6784   36.8498   15.5066 O   0  0  0  0  0  0  0  0  0  0  0  0
  -31.4496   35.8861   17.3824 N   0  0  0  0  0  0  0  0  0  0  0  0
  -32.8610   36.3904   17.4426 C   0  0  0  0  0  0  0  0  0  0  0  0
  -33.5844   36.4398   18.7557 C   0  0  0  0  0  0  0  0  0  0  0  0
  -32.8964   35.9850   20.0087 N   0  0  0  0  0  0  0  0  0  0  0  0
  -31.4850   35.4807   19.9485 C   0  0  0  0  0  0  0  0  0  0  0  0
  -30.7970   35.0259   21.2013 O   0  0  0  0  0  0  0  0  0  0  0  0
  -30.7616   35.4313   18.6353 C   0  0  0  0  0  0  0  0  0  0  0  0
 15 16  1  0  0  0
 16  9  1  0  0  0
  9 10  2  0  0  0
 10 11  1  0  0  0
 11 12  2  0  0  0
 12 13  1  0  0  0
 13 14  2  0  0  0
 14  1  1  0  0  0
  1  2  1  0  0  0
  2  3  1  0  0  0
  3  4  1  0  0  0
  4  5  1  0  0  0
  5  6  1  0  0  0
  4  7  1  0  0  0
  7  8  2  0  0  0
  7 17  1  0  0  0
 17 18  2  0  0  0
 18 19  1  0  0  0
 19 20  2  0  0  0
 20 21  1  0  0  0
 21 22  2  0  0  0
 21 23  1  0  0  0
 23 24  2  0  0  0
 23 25  2  0  0  0
 23 26  1  0  0  0
 26 27  1  0  0  0
 27 28  1  0  0  0
 28 29  1  0  0  0
 29 30  1  0  0  0
 30 31  2  0  0  0
 30 32  1  0  0  0
 14  9  1  0  0  0
  6  1  1  0  0  0
 22 17  1  0  0  0
 32 26  1  0  0  0
M  END
> <minimizedAffinity>
-5.72440

$$$$



 34 38  0  0  0  0  0  0  0  0999 V2000
  -28.0220   36.1463   14.8931 C   0  0  0  0  0  0  0  0  0  0  0  0
  -26.9161   35.6384   15.7700 C   0  0  0  0  0  0  0  0  0  0  0  0
  -25.4905   35.9818   15.4540 C   0  0  0  0  0  0  0  0  0  0  0  0
  -24.3846   35.4738   16.3310 O   0  0  0  0  0  0  0  0  0  0  0  0
  -25.1708   36.8331   14.2612 N   0  0  0  0  0  0  0  0  0  0  0  0
  -26.2767   37.3411   13.3842 C   0  0  0  0  0  0  0  0  0  0  0  0
  -27.7023   36.9977   13.7001 C   0  0  0  0  0  0  0  0  0  0  0  0
  -28.8081   37.5056   12.8232 C   0  0  0  0  0  0  0  0  0  0  0  0
  -28.4884   38.3570   11.6303 C   0  0  0  0  0  0  0  0  0  0  0  0
  -27.0628   38.7003   11.3144 C   0  0  0  0  0  0  0  0  0  0  0  0
  -25.9570   38.1924   12.1913 C   0  0  0  0  0  0  0  0  0  0  0  0
  -30.1995   36.5949   16.2373 N   0  0  0  0  0  0  0  0  0  0  0  0
  -31.6251   36.2515   16.5532 C   0  0  0  0  0  0  0  0  0  0  0  0
  -29.4475   35.8030   15.2091 C   0  0  0  0  0  0  0  0  0  0  0  0
  -30.1211   34.6676   14.4967 O   0  0  0  0  0  0  0  0  0  0  0  0
  -29.5260   37.7303   16.9496 C   0  0  0  0  0  0  0  0  0  0  0  0
  -27.2788   40.3759   15.2129 C   0  0  0  0  0  0  0  0  0  0  0  0
  -28.6325   40.7587   14.6923 C   0  0  0  0  0  0  0  0  0  0  0  0
  -29.6390   39.8142   15.2795 C   0  0  0  0  0  0  0  0  0  0  0  0
  -28.9075   38.8477   16.1630 C   0  0  0  0  0  0  0  0  0  0  0  0
  -27.4487   39.1949   16.1219 O   0  0  0  0  0  0  0  0  0  0  0  0
  -23.3883   40.1714   13.9417 C   0  0  0  0  0  0  0  0  0  0  0  0
  -24.5587   40.9801   14.4173 C   0  0  0  0  0  0  0  0  0  0  0  0
  -25.1619   42.3059   14.7756 C   0  0  0  0  0  0  0  0  0  0  0  0
  -25.9827   41.0549   14.8825 C   0  0  0  0  0  0  0  0  0  0  0  0
  -29.5943   38.8649   10.7534 S   0  0  0  0  0  0  0  0  0  0  0  0
  -28.7320   38.6546    9.5442 O   0  0  0  0  0  0  0  0  0  0  0  0
  -30.4566   39.0753   11.9625 O   0  0  0  0  0  0  0  0  0  0  0  0
  -30.7001   39.3729    9.8764 N   0  0  0  0  0  0  0  0  0  0  0  0
  -31.9684   39.8869   10.4905 C   0  0  0  0  0  0  0  0  0  0  0  0
  -33.0742   40.3949    9.6134 C   0  0  0  0  0  0  0  0  0  0  0  0
  -32.9117   40.3888    8.1223 O   0  0  0  0  0  0  0  0  0  0  0  0
  -31.6434   39.8748    7.5082 C   0  0  0  0  0  0  0  0  0  0  0  0
  -30.5376   39.3668    8.3852 C   0  0  0  0  0  0  0  0  0  0  0  0
 23 22  1  0  0  0
 23 24  1  0  0  0
 24 25  1  0  0  0
 25 17  1  0  0  0
 17 18  2  0  0  0
 18 19  1  0  0  0
 19 20  2  0  0  0
 20 21  1  0  0  0
 20 16  1  0  0  0
 16 12  1  0  0  0
 12 13  1  0  0  0
 12 14  1  0  0  0
 14 15  2  0  0  0
 14  1  1  0  0  0
  1  2  2  0  0  0
  2  3  1  0  0  0
  3  4  2  0  0  0
  3  5  1  0  0  0
  5  6  1  0  0  0
  6  7  2  0  0  0
  7  8  1  0  0  0
  8  9  2  0  0  0
  9 10  1  0  0  0
 10 11  2  0  0  0
  9 26  1  0  0  0
 26 27  2  0  0  0
 26 28  2  0  0  0
 26 29  1  0  0  0
 29 30  1  0  0  0
 30 31  1  0  0  0
 31 32  1  0  0  0
 32 33  1  0  0  0
 33 34  1  0  0  0
 25 23  1  0  0  0
 21 17  1  0  0  0
  7  1  1  0  0  0
 11  6  1  0  0  0
 34 29  1  0  0  0
M  END
> <minimizedAffinity>
-5.61763

$$$$



 33 37  0  0  0  0  0  0  0  0999 V2000
  -28.1068   38.8639   11.5007 C   0  0  0  0  0  0  0  0  0  0  0  0
  -26.6317   38.9236   11.2355 C   0  0  0  0  0  0  0  0  0  0  0  0
  -25.7231   39.6213   12.2039 C   0  0  0  0  0  0  0  0  0  0  0  0
  -26.2897   40.2592   13.4376 C   0  0  0  0  0  0  0  0  0  0  0  0
  -27.7649   40.1996   13.7028 C   0  0  0  0  0  0  0  0  0  0  0  0
  -28.6734   39.5019   12.7343 C   0  0  0  0  0  0  0  0  0  0  0  0
  -28.5303   40.7653   14.8621 N   0  0  0  0  0  0  0  0  0  0  0  0
  -28.0096   41.5304   16.0427 C   0  0  0  0  0  0  0  0  0  0  0  0
  -29.0399   41.9645   17.0426 O   0  0  0  0  0  0  0  0  0  0  0  0
  -26.5949   41.9187   16.3553 C   0  0  0  0  0  0  0  0  0  0  0  0
  -25.3515   41.6378   15.5647 C   0  0  0  0  0  0  0  0  0  0  0  0
  -25.2157   40.8993   14.2662 S   0  0  0  0  0  0  0  0  0  0  0  0
  -23.8010   41.2877   14.5789 O   0  0  0  0  0  0  0  0  0  0  0  0
  -24.4502   40.3336   13.1068 O   0  0  0  0  0  0  0  0  0  0  0  0
  -24.0751   42.1653   16.1500 C   0  0  0  0  0  0  0  0  0  0  0  0
  -23.7819   43.6358   16.1078 C   0  0  0  0  0  0  0  0  0  0  0  0
  -22.5055   44.1632   16.6931 C   0  0  0  0  0  0  0  0  0  0  0  0
  -21.5222   43.2201   17.3207 C   0  0  0  0  0  0  0  0  0  0  0  0
  -21.8154   41.7497   17.3630 C   0  0  0  0  0  0  0  0  0  0  0  0
  -23.0918   41.2223   16.7777 C   0  0  0  0  0  0  0  0  0  0  0  0
  -20.6652   41.0671   18.0421 O   0  0  0  0  0  0  0  0  0  0  0  0
  -19.6612   42.1157   18.4195 C   0  0  0  0  0  0  0  0  0  0  0  0
  -20.1909   43.4464   17.9737 O   0  0  0  0  0  0  0  0  0  0  0  0
  -30.0124   40.5355   14.8378 C   0  0  0  0  0  0  0  0  0  0  0  0
  -30.5568   39.1412   14.9345 C   0  0  0  0  0  0  0  0  0  0  0  0
  -31.8548   38.7948   14.2672 O   0  0  0  0  0  0  0  0  0  0  0  0
  -29.8033   38.0930   15.6985 N   0  0  0  0  0  0  0  0  0  0  0  0
  -30.3477   36.6987   15.7952 C   0  0  0  0  0  0  0  0  0  0  0  0
  -30.1810   35.7473   14.6476 C   0  0  0  0  0  0  0  0  0  0  0  0
  -29.2534   35.9252   13.4824 C   0  0  0  0  0  0  0  0  0  0  0  0
  -29.4117   34.7387   12.5784 C   0  0  0  0  0  0  0  0  0  0  0  0
  -30.4372   33.8274   13.1849 C   0  0  0  0  0  0  0  0  0  0  0  0
  -30.9127   34.4508   14.4638 O   0  0  0  0  0  0  0  0  0  0  0  0
  1  2  2  0  0  0
  2  3  1  0  0  0
  3  4  2  0  0  0
  4  5  1  0  0  0
  5  6  2  0  0  0
  5  7  1  0  0  0
  7  8  1  0  0  0
  8  9  2  0  0  0
  8 10  1  0  0  0
 10 11  1  0  0  0
 11 12  1  0  0  0
 12 13  2  0  0  0
 12 14  2  0  0  0
 11 15  1  0  0  0
 15 16  2  0  0  0
 16 17  1  0  0  0
 17 18  2  0  0  0
 18 19  1  0  0  0
 19 20  2  0  0  0
 19 21  1  0  0  0
 21 22  1  0  0  0
 22 23  1  0  0  0
  7 24  1  0  0  0
 24 25  1  0  0  0
 25 26  2  0  0  0
 25 27  1  0  0  0
 27 28  1  0  0  0
 28 29  1  0  0  0
 29 30  2  0  0  0
 30 31  1  0  0  0
 31 32  2  0  0  0
 32 33  1  0  0  0
  6  1  1  0  0  0
 12  4  1  0  0  0
 20 15  1  0  0  0
 23 18  1  0  0  0
 33 29  1  0  0  0
M  END
> <minimizedAffinity>
-6.98480

$$$$



 33 37  0  0  0  0  0  0  0  0999 V2000
  -28.1349   38.8764   11.5148 C   0  0  0  0  0  0  0  0  0  0  0  0
  -26.6607   38.9365   11.2447 C   0  0  0  0  0  0  0  0  0  0  0  0
  -25.7493   39.6356   12.2094 C   0  0  0  0  0  0  0  0  0  0  0  0
  -26.3121   40.2746   13.4442 C   0  0  0  0  0  0  0  0  0  0  0  0
  -27.7863   40.2145   13.7144 C   0  0  0  0  0  0  0  0  0  0  0  0
  -28.6977   39.5154   12.7497 C   0  0  0  0  0  0  0  0  0  0  0  0
  -28.5482   40.7810   14.8757 N   0  0  0  0  0  0  0  0  0  0  0  0
  -28.0240   41.5476   16.0537 C   0  0  0  0  0  0  0  0  0  0  0  0
  -29.0511   41.9822   17.0566 O   0  0  0  0  0  0  0  0  0  0  0  0
  -26.6084   41.9369   16.3613 C   0  0  0  0  0  0  0  0  0  0  0  0
  -25.3675   41.6558   15.5669 C   0  0  0  0  0  0  0  0  0  0  0  0
  -25.2356   40.9160   14.2686 S   0  0  0  0  0  0  0  0  0  0  0  0
  -23.8201   41.3054   14.5763 O   0  0  0  0  0  0  0  0  0  0  0  0
  -24.4738   40.3495   13.1073 O   0  0  0  0  0  0  0  0  0  0  0  0
  -24.0895   42.1845   16.1474 C   0  0  0  0  0  0  0  0  0  0  0  0
  -23.8026   43.6565   16.1134 C   0  0  0  0  0  0  0  0  0  0  0  0
  -22.5245   44.1851   16.6940 C   0  0  0  0  0  0  0  0  0  0  0  0
  -21.5332   43.2418   17.3086 C   0  0  0  0  0  0  0  0  0  0  0  0
  -21.8201   41.7699   17.3426 C   0  0  0  0  0  0  0  0  0  0  0  0
  -23.0982   41.2413   16.7621 C   0  0  0  0  0  0  0  0  0  0  0  0
  -20.6627   41.0874   18.0094 O   0  0  0  0  0  0  0  0  0  0  0  0
  -19.6605   42.1375   18.3875 C   0  0  0  0  0  0  0  0  0  0  0  0
  -20.1986   43.4690   17.9543 O   0  0  0  0  0  0  0  0  0  0  0  0
  -30.0302   40.5505   14.8565 C   0  0  0  0  0  0  0  0  0  0  0  0
  -30.5736   39.1556   14.9514 C   0  0  0  0  0  0  0  0  0  0  0  0
  -31.8733   38.8101   14.2872 O   0  0  0  0  0  0  0  0  0  0  0  0
  -29.8171   38.1061   15.7106 N   0  0  0  0  0  0  0  0  0  0  0  0
  -30.3604   36.7111   15.8054 C   0  0  0  0  0  0  0  0  0  0  0  0
  -30.1460   35.7446   14.6786 C   0  0  0  0  0  0  0  0  0  0  0  0
  -29.1219   35.8724   13.5901 C   0  0  0  0  0  0  0  0  0  0  0  0
  -29.2610   34.6872   12.6812 C   0  0  0  0  0  0  0  0  0  0  0  0
  -30.3710   33.8268   13.2080 C   0  0  0  0  0  0  0  0  0  0  0  0
  -30.9180   34.4803   14.4426 O   0  0  0  0  0  0  0  0  0  0  0  0
  1  2  2  0  0  0
  2  3  1  0  0  0
  3  4  2  0  0  0
  4  5  1  0  0  0
  5  6  2  0  0  0
  5  7  1  0  0  0
  7  8  1  0  0  0
  8  9  2  0  0  0
  8 10  1  0  0  0
 10 11  1  0  0  0
 11 12  1  0  0  0
 12 13  2  0  0  0
 12 14  2  0  0  0
 11 15  1  0  0  0
 15 16  2  0  0  0
 16 17  1  0  0  0
 17 18  2  0  0  0
 18 19  1  0  0  0
 19 20  2  0  0  0
 19 21  1  0  0  0
 21 22  1  0  0  0
 22 23  1  0  0  0
  7 24  1  0  0  0
 24 25  1  0  0  0
 25 26  2  0  0  0
 25 27  1  0  0  0
 27 28  1  0  0  0
 29 28  1  0  0  0
 29 30  1  0  0  0
 30 31  1  0  0  0
 31 32  1  0  0  0
 32 33  1  0  0  0
  6  1  1  0  0  0
 12  4  1  0  0  0
 20 15  1  0  0  0
 23 18  1  0  0  0
 33 29  1  0  0  0
M  END
> <minimizedAffinity>
-6.60617

$$$$



 34 37  0  0  0  0  0  0  0  0999 V2000
  -21.9603   40.3996   14.2714 H   0  0  0  0  0  0  0  0  0  0  0  0
  -22.2234   41.3935   15.3636 N   0  0  0  0  0  0  0  0  0  0  0  0
  -23.6310   41.6726   15.8006 C   0  0  0  0  0  0  0  0  0  0  0  0
  -24.7755   40.9577   15.1455 C   0  0  0  0  0  0  0  0  0  0  0  0
  -24.5123   39.9637   14.0532 C   0  0  0  0  0  0  0  0  0  0  0  0
  -26.1829   41.2367   15.5824 C   0  0  0  0  0  0  0  0  0  0  0  0
  -27.3274   40.5217   14.9273 O   0  0  0  0  0  0  0  0  0  0  0  0
  -26.4461   42.2306   16.6746 N   0  0  0  0  0  0  0  0  0  0  0  0
  -25.3017   42.9455   17.3298 C   0  0  0  0  0  0  0  0  0  0  0  0
  -23.8942   42.6665   16.8928 N   0  0  0  0  0  0  0  0  0  0  0  0
  -22.9753   43.5186   17.7172 C   0  0  0  0  0  0  0  0  0  0  0  0
  -23.8150   44.3242   18.6637 N   0  0  0  0  0  0  0  0  0  0  0  0
  -25.2528   43.9700   18.4243 S   0  0  0  0  0  0  0  0  0  0  0  0
  -25.6567   39.2488   13.3980 C   0  0  0  0  0  0  0  0  0  0  0  0
  -26.2926   39.6157   12.0900 C   0  0  0  0  0  0  0  0  0  0  0  0
  -27.3950   38.6351   11.8194 C   0  0  0  0  0  0  0  0  0  0  0  0
  -27.4403   37.6623   12.9602 N   0  0  0  0  0  0  0  0  0  0  0  0
  -26.3660   38.0415   13.9358 C   0  0  0  0  0  0  0  0  0  0  0  0
  -26.0555   37.3372   15.2232 C   0  0  0  0  0  0  0  0  0  0  0  0
  -28.2941   38.6286   10.6188 C   0  0  0  0  0  0  0  0  0  0  0  0
  -28.3928   36.5120   13.1007 C   0  0  0  0  0  0  0  0  0  0  0  0
  -28.0862   35.1996   12.4422 C   0  0  0  0  0  0  0  0  0  0  0  0
  -29.0386   34.0493   12.5826 C   0  0  0  0  0  0  0  0  0  0  0  0
  -30.2978   34.2115   13.3816 C   0  0  0  0  0  0  0  0  0  0  0  0
  -30.6044   35.5239   14.0400 C   0  0  0  0  0  0  0  0  0  0  0  0
  -29.6520   36.6741   13.8996 C   0  0  0  0  0  0  0  0  0  0  0  0
  -29.9586   37.9865   14.5581 O   0  0  0  0  0  0  0  0  0  0  0  0
  -30.8805   38.9634   13.8904 C   0  0  0  0  0  0  0  0  0  0  0  0
  -30.3658   40.3036   13.4557 C   0  0  0  0  0  0  0  0  0  0  0  0
  -21.4794   43.5581   17.6133 S   0  0  0  0  0  0  0  0  0  0  0  0
  -21.3929   42.2640   18.3669 O   0  0  0  0  0  0  0  0  0  0  0  0
  -21.5659   44.8522   16.8598 O   0  0  0  0  0  0  0  0  0  0  0  0
  -19.9835   43.5976   17.5095 C   0  0  0  0  0  0  0  0  0  0  0  0
  -19.2841   44.8981   17.2461 C   0  0  0  0  0  0  0  0  0  0  0  0
  1  2  1  0  0  0
  2  3  2  0  0  0
  3  4  1  0  0  0
  4  5  2  0  0  0
  5 14  1  0  0  0
 14 15  1  0  0  0
 15 16  2  0  0  0
 16 17  1  0  0  0
 17 18  1  0  0  0
 18 19  1  0  0  0
 17 21  1  0  0  0
 21 22  2  0  0  0
 22 23  1  0  0  0
 23 24  2  0  0  0
 24 25  1  0  0  0
 25 26  2  0  0  0
 26 27  1  0  0  0
 27 28  1  0  0  0
 28 29  1  0  0  0
 16 20  1  0  0  0
  4  6  1  0  0  0
  6  7  2  0  0  0
  6  8  1  0  0  0
  8  9  2  0  0  0
  9 10  1  0  0  0
 10 11  1  0  0  0
 11 12  2  0  0  0
 12 13  1  0  0  0
 11 30  1  0  0  0
 30 31  2  0  0  0
 30 32  2  0  0  0
 30 33  1  0  0  0
 33 34  1  0  0  0
 10  3  1  0  0  0
 18 14  2  0  0  0
 26 21  1  0  0  0
 13  9  1  0  0  0
M  END
> <minimizedAffinity>
-5.42595

$$$$



 34 37  0  0  0  0  0  0  0  0999 V2000
  -25.8145   37.8985   15.1221 H   0  0  0  0  0  0  0  0  0  0  0  0
  -26.3309   36.4907   15.1580 N   0  0  0  0  0  0  0  0  0  0  0  0
  -25.5437   35.4207   15.8548 C   0  0  0  0  0  0  0  0  0  0  0  0
  -26.0601   34.0127   15.8908 C   0  0  0  0  0  0  0  0  0  0  0  0
  -27.3637   33.6749   15.2301 C   0  0  0  0  0  0  0  0  0  0  0  0
  -25.2729   32.9428   16.5875 C   0  0  0  0  0  0  0  0  0  0  0  0
  -25.7893   31.5349   16.6235 O   0  0  0  0  0  0  0  0  0  0  0  0
  -23.9693   33.2806   17.2482 N   0  0  0  0  0  0  0  0  0  0  0  0
  -23.4529   34.6884   17.2122 C   0  0  0  0  0  0  0  0  0  0  0  0
  -24.2401   35.7584   16.5155 N   0  0  0  0  0  0  0  0  0  0  0  0
  -23.4840   37.0476   16.6432 N   0  0  0  0  0  0  0  0  0  0  0  0
  -22.2295   36.7743   17.4189 C   0  0  0  0  0  0  0  0  0  0  0  0
  -22.2103   35.3162   17.7705 S   0  0  0  0  0  0  0  0  0  0  0  0
  -28.1509   34.7450   14.5334 C   0  0  0  0  0  0  0  0  0  0  0  0
  -27.8806   35.0562   13.0911 C   0  0  0  0  0  0  0  0  0  0  0  0
  -28.6677   36.1262   12.3944 C   0  0  0  0  0  0  0  0  0  0  0  0
  -29.7252   36.8851   13.1399 C   0  0  0  0  0  0  0  0  0  0  0  0
  -29.9955   36.5739   14.5822 C   0  0  0  0  0  0  0  0  0  0  0  0
  -29.2083   35.5039   15.2789 C   0  0  0  0  0  0  0  0  0  0  0  0
  -31.0530   37.3328   15.3279 O   0  0  0  0  0  0  0  0  0  0  0  0
  -31.5903   36.7957   16.6212 C   0  0  0  0  0  0  0  0  0  0  0  0
  -30.5124   37.9552   12.4433 O   0  0  0  0  0  0  0  0  0  0  0  0
  -29.8499   39.2459   12.0625 C   0  0  0  0  0  0  0  0  0  0  0  0
  -28.4931   39.5817   12.6071 C   0  0  0  0  0  0  0  0  0  0  0  0
  -27.2626   39.2254   11.8268 C   0  0  0  0  0  0  0  0  0  0  0  0
  -25.9058   39.5612   12.3714 C   0  0  0  0  0  0  0  0  0  0  0  0
  -25.7797   40.2534   13.6961 C   0  0  0  0  0  0  0  0  0  0  0  0
  -27.0103   40.6097   14.4763 C   0  0  0  0  0  0  0  0  0  0  0  0
  -28.3670   40.2739   13.9318 C   0  0  0  0  0  0  0  0  0  0  0  0
  -29.5976   40.6303   14.7120 C   0  0  0  0  0  0  0  0  0  0  0  0
  -21.1787   37.7822   17.7796 S   0  0  0  0  0  0  0  0  0  0  0  0
  -22.1375   38.4435   18.7248 O   0  0  0  0  0  0  0  0  0  0  0  0
  -20.2200   37.1208   16.8343 O   0  0  0  0  0  0  0  0  0  0  0  0
  -20.1279   38.7900   18.1402 C   0  0  0  0  0  0  0  0  0  0  0  0
  1  2  1  0  0  0
  2  3  2  0  0  0
  3  4  1  0  0  0
  4  5  2  0  0  0
  5 14  1  0  0  0
 14 15  2  0  0  0
 15 16  1  0  0  0
 16 17  2  0  0  0
 17 18  1  0  0  0
 18 19  2  0  0  0
 18 20  1  0  0  0
 20 21  1  0  0  0
 17 22  1  0  0  0
 22 23  1  0  0  0
 23 24  1  0  0  0
 24 25  2  0  0  0
 25 26  1  0  0  0
 26 27  2  0  0  0
 27 28  1  0  0  0
 28 29  2  0  0  0
 29 30  1  0  0  0
  4  6  1  0  0  0
  6  7  2  0  0  0
  6  8  1  0  0  0
  8  9  2  0  0  0
  9 10  1  0  0  0
 10 11  1  0  0  0
 11 12  2  0  0  0
 12 13  1  0  0  0
 12 31  1  0  0  0
 31 32  2  0  0  0
 31 33  2  0  0  0
 31 34  1  0  0  0
 10  3  1  0  0  0
 19 14  1  0  0  0
 29 24  1  0  0  0
 13  9  1  0  0  0
M  END
> <minimizedAffinity>
-5.65256

$$$$



 34 37  0  0  0  0  0  0  0  0999 V2000
  -26.0742   37.9372   15.3275 H   0  0  0  0  0  0  0  0  0  0  0  0
  -26.4773   36.4925   15.3458 N   0  0  0  0  0  0  0  0  0  0  0  0
  -25.5657   35.4672   15.9525 C   0  0  0  0  0  0  0  0  0  0  0  0
  -25.9687   34.0225   15.9710 C   0  0  0  0  0  0  0  0  0  0  0  0
  -27.2833   33.6030   15.3827 C   0  0  0  0  0  0  0  0  0  0  0  0
  -25.0573   32.9973   16.5776 C   0  0  0  0  0  0  0  0  0  0  0  0
  -25.4603   31.5525   16.5960 O   0  0  0  0  0  0  0  0  0  0  0  0
  -23.7428   33.4167   17.1659 N   0  0  0  0  0  0  0  0  0  0  0  0
  -23.3397   34.8614   17.1475 C   0  0  0  0  0  0  0  0  0  0  0  0
  -24.2512   35.8867   16.5408 N   0  0  0  0  0  0  0  0  0  0  0  0
  -23.5898   37.2271   16.6662 N   0  0  0  0  0  0  0  0  0  0  0  0
  -22.2695   37.0303   17.3504 C   0  0  0  0  0  0  0  0  0  0  0  0
  -22.1150   35.5682   17.6479 S   0  0  0  0  0  0  0  0  0  0  0  0
  -28.1948   34.6283   14.7760 C   0  0  0  0  0  0  0  0  0  0  0  0
  -28.1784   34.8636   13.2947 C   0  0  0  0  0  0  0  0  0  0  0  0
  -29.0899   35.8888   12.6880 C   0  0  0  0  0  0  0  0  0  0  0  0
  -30.0178   36.6788   13.5627 C   0  0  0  0  0  0  0  0  0  0  0  0
  -30.0341   36.4435   15.0440 C   0  0  0  0  0  0  0  0  0  0  0  0
  -29.1227   35.4182   15.6507 C   0  0  0  0  0  0  0  0  0  0  0  0
  -30.9620   37.2334   15.9188 O   0  0  0  0  0  0  0  0  0  0  0  0
  -31.8947   36.5247   16.8556 C   0  0  0  0  0  0  0  0  0  0  0  0
  -30.9293   37.7041   12.9561 O   0  0  0  0  0  0  0  0  0  0  0  0
  -30.3652   38.9886   12.4252 C   0  0  0  0  0  0  0  0  0  0  0  0
  -28.8823   39.2142   12.4275 C   0  0  0  0  0  0  0  0  0  0  0  0
  -28.0515   38.7520   11.2672 C   0  0  0  0  0  0  0  0  0  0  0  0
  -26.5686   38.9776   11.2695 C   0  0  0  0  0  0  0  0  0  0  0  0
  -25.9165   39.6654   12.4321 C   0  0  0  0  0  0  0  0  0  0  0  0
  -26.7472   40.1276   13.5924 C   0  0  0  0  0  0  0  0  0  0  0  0
  -28.2302   39.9020   13.5901 C   0  0  0  0  0  0  0  0  0  0  0  0
  -26.0950   40.8154   14.7550 C   0  0  0  0  0  0  0  0  0  0  0  0
  -21.2779   38.1065   17.6795 S   0  0  0  0  0  0  0  0  0  0  0  0
  -22.3503   38.8772   18.3908 O   0  0  0  0  0  0  0  0  0  0  0  0
  -20.2054   37.3359   16.9681 O   0  0  0  0  0  0  0  0  0  0  0  0
  -20.2862   39.1828   18.0085 C   0  0  0  0  0  0  0  0  0  0  0  0
  1  2  1  0  0  0
  2  3  2  0  0  0
  3  4  1  0  0  0
  4  5  2  0  0  0
  5 14  1  0  0  0
 14 15  2  0  0  0
 15 16  1  0  0  0
 16 17  2  0  0  0
 17 18  1  0  0  0
 18 19  2  0  0  0
 18 20  1  0  0  0
 20 21  1  0  0  0
 17 22  1  0  0  0
 22 23  1  0  0  0
 23 24  1  0  0  0
 24 25  2  0  0  0
 25 26  1  0  0  0
 26 27  2  0  0  0
 27 28  1  0  0  0
 28 29  2  0  0  0
 28 30  1  0  0  0
  4  6  1  0  0  0
  6  7  2  0  0  0
  6  8  1  0  0  0
  8  9  2  0  0  0
  9 10  1  0  0  0
 10 11  1  0  0  0
 11 12  2  0  0  0
 12 13  1  0  0  0
 12 31  1  0  0  0
 31 32  2  0  0  0
 31 33  2  0  0  0
 31 34  1  0  0  0
 10  3  1  0  0  0
 19 14  1  0  0  0
 29 24  1  0  0  0
 13  9  1  0  0  0
M  END
> <minimizedAffinity>
-5.92494

$$$$



 32 36  0  0  0  0  0  0  0  0999 V2000
  -31.6674   42.7829   11.7405 C   0  0  0  0  0  0  0  0  0  0  0  0
  -31.0910   41.6074   11.0085 C   0  0  0  0  0  0  0  0  0  0  0  0
  -30.8423   40.3194   11.7359 C   0  0  0  0  0  0  0  0  0  0  0  0
  -31.1700   40.2069   13.1953 C   0  0  0  0  0  0  0  0  0  0  0  0
  -31.7464   41.3824   13.9273 C   0  0  0  0  0  0  0  0  0  0  0  0
  -31.9951   42.6704   13.1999 C   0  0  0  0  0  0  0  0  0  0  0  0
  -30.9214   38.9188   13.9227 N   0  0  0  0  0  0  0  0  0  0  0  0
  -30.3450   37.7433   13.1907 C   0  0  0  0  0  0  0  0  0  0  0  0
  -30.0173   37.8557   11.7312 N   0  0  0  0  0  0  0  0  0  0  0  0
  -30.2659   39.1438   11.0038 C   0  0  0  0  0  0  0  0  0  0  0  0
  -29.9382   39.2563    9.5444 O   0  0  0  0  0  0  0  0  0  0  0  0
  -30.2103   36.6110   14.1652 C   0  0  0  0  0  0  0  0  0  0  0  0
  -30.7034   37.0868   15.4996 S   0  0  0  0  0  0  0  0  0  0  0  0
  -31.1429   38.5131   15.3497 C   0  0  0  0  0  0  0  0  0  0  0  0
  -31.7052   39.3812   16.4360 S   0  0  0  0  0  0  0  0  0  0  0  0
  -29.6762   35.2431   13.8592 C   0  0  0  0  0  0  0  0  0  0  0  0
  -30.5350   34.0345   14.0863 O   0  0  0  0  0  0  0  0  0  0  0  0
  -28.2832   35.0839   13.3259 N   0  0  0  0  0  0  0  0  0  0  0  0
  -27.7491   33.7161   13.0198 C   0  0  0  0  0  0  0  0  0  0  0  0
  -27.3550   32.7973   14.1381 C   0  0  0  0  0  0  0  0  0  0  0  0
  -27.3329   31.3138   13.9175 C   0  0  0  0  0  0  0  0  0  0  0  0
  -26.9388   30.3950   15.0357 C   0  0  0  0  0  0  0  0  0  0  0  0
  -26.5669   30.9597   16.3746 C   0  0  0  0  0  0  0  0  0  0  0  0
  -26.5890   32.4432   16.5953 C   0  0  0  0  0  0  0  0  0  0  0  0
  -26.9831   33.3620   15.4770 C   0  0  0  0  0  0  0  0  0  0  0  0
  -26.1752   32.7071   18.0128 O   0  0  0  0  0  0  0  0  0  0  0  0
  -25.8973   31.3868   18.6681 C   0  0  0  0  0  0  0  0  0  0  0  0
  -26.1394   30.3068   17.6557 O   0  0  0  0  0  0  0  0  0  0  0  0
  -31.1363   44.3948    9.7734 C   0  0  0  0  0  0  0  0  0  0  0  0
  -31.9161   44.0710   11.0131 O   0  0  0  0  0  0  0  0  0  0  0  0
  -32.5715   43.8460   13.9320 O   0  0  0  0  0  0  0  0  0  0  0  0
  -34.0285   44.1747   13.7937 C   0  0  0  0  0  0  0  0  0  0  0  0
 29 30  1  0  0  0
 30  1  1  0  0  0
  1  2  2  0  0  0
  2  3  1  0  0  0
  3  4  2  0  0  0
  4  5  1  0  0  0
  5  6  2  0  0  0
  6 31  1  0  0  0
 31 32  1  0  0  0
  4  7  1  0  0  0
  7  8  1  0  0  0
  8  9  2  0  0  0
  9 10  1  0  0  0
 10 11  2  0  0  0
  8 12  1  0  0  0
 12 13  1  0  0  0
 13 14  1  0  0  0
 14 15  2  0  0  0
 12 16  1  0  0  0
 16 17  2  0  0  0
 16 18  1  0  0  0
 18 19  1  0  0  0
 19 20  1  0  0  0
 20 21  2  0  0  0
 21 22  1  0  0  0
 22 23  2  0  0  0
 23 24  1  0  0  0
 24 25  2  0  0  0
 24 26  1  0  0  0
 26 27  1  0  0  0
 27 28  1  0  0  0
  6  1  1  0  0  0
 10  3  1  0  0  0
 14  7  1  0  0  0
 25 20  1  0  0  0
 28 23  1  0  0  0
M  END
> <minimizedAffinity>
-5.71473

$$$$



 32 35  0  0  0  0  0  0  0  0999 V2000
  -29.4292   37.5517   14.4658 N   0  0  0  0  0  0  0  0  0  0  0  0
  -27.9718   37.2910   14.7068 C   0  0  0  0  0  0  0  0  0  0  0  0
  -27.5501   36.2868   15.7382 C   0  0  0  0  0  0  0  0  0  0  0  0
  -28.5857   35.5434   16.5287 N   0  0  0  0  0  0  0  0  0  0  0  0
  -30.0431   35.8042   16.2877 C   0  0  0  0  0  0  0  0  0  0  0  0
  -30.4648   36.8083   15.2563 C   0  0  0  0  0  0  0  0  0  0  0  0
  -28.1640   34.5393   17.5601 C   0  0  0  0  0  0  0  0  0  0  0  0
  -29.1997   33.7959   18.3505 O   0  0  0  0  0  0  0  0  0  0  0  0
  -29.8509   38.5558   13.4344 S   0  0  0  0  0  0  0  0  0  0  0  0
  -28.4301   39.0188   13.3042 O   0  0  0  0  0  0  0  0  0  0  0  0
  -31.2717   38.0928   13.5646 O   0  0  0  0  0  0  0  0  0  0  0  0
  -30.9126   41.2284   14.2890 C   0  0  0  0  0  0  0  0  0  0  0  0
  -30.8034   40.8963   12.8302 C   0  0  0  0  0  0  0  0  0  0  0  0
  -31.2251   41.9005   11.7989 C   0  0  0  0  0  0  0  0  0  0  0  0
  -31.1159   41.5684   10.3401 C   0  0  0  0  0  0  0  0  0  0  0  0
  -30.5851   40.2321    9.9128 C   0  0  0  0  0  0  0  0  0  0  0  0
  -30.1634   39.2279   10.9443 C   0  0  0  0  0  0  0  0  0  0  0  0
  -30.2726   39.5600   12.4029 C   0  0  0  0  0  0  0  0  0  0  0  0
  -30.4759   39.9000    8.4542 O   0  0  0  0  0  0  0  0  0  0  0  0
  -30.8976   40.9042    7.4228 C   0  0  0  0  0  0  0  0  0  0  0  0
  -31.4284   42.2405    7.8501 C   0  0  0  0  0  0  0  0  0  0  0  0
  -31.8501   43.2447    6.8186 O   0  0  0  0  0  0  0  0  0  0  0  0
  -31.5376   42.5726    9.3087 N   0  0  0  0  0  0  0  0  0  0  0  0
  -26.7067   34.2785   17.8010 C   0  0  0  0  0  0  0  0  0  0  0  0
  -26.0742   34.6952   19.0959 C   0  0  0  0  0  0  0  0  0  0  0  0
  -25.8817   33.6011   16.7472 O   0  0  0  0  0  0  0  0  0  0  0  0
  -26.4827   32.5117   15.9094 C   0  0  0  0  0  0  0  0  0  0  0  0
  -26.5700   31.1140   16.4468 C   0  0  0  0  0  0  0  0  0  0  0  0
  -27.1711   30.0245   15.6091 C   0  0  0  0  0  0  0  0  0  0  0  0
  -27.6848   30.3327   14.2339 C   0  0  0  0  0  0  0  0  0  0  0  0
  -27.5975   31.7305   13.6965 C   0  0  0  0  0  0  0  0  0  0  0  0
  -26.9965   32.8199   14.5343 C   0  0  0  0  0  0  0  0  0  0  0  0
 12 13  1  0  0  0
 13 14  2  0  0  0
 14 15  1  0  0  0
 15 16  2  0  0  0
 16 17  1  0  0  0
 17 18  2  0  0  0
 18  9  1  0  0  0
  9 10  2  0  0  0
  9 11  2  0  0  0
  9  1  1  0  0  0
  1  2  1  0  0  0
  2  3  1  0  0  0
  3  4  1  0  0  0
  4  5  1  0  0  0
  5  6  1  0  0  0
  4  7  1  0  0  0
  7  8  2  0  0  0
  7 24  1  0  0  0
 24 25  1  0  0  0
 24 26  1  0  0  0
 26 27  1  0  0  0
 27 28  2  0  0  0
 28 29  1  0  0  0
 29 30  2  0  0  0
 30 31  1  0  0  0
 31 32  2  0  0  0
 16 19  1  0  0  0
 19 20  1  0  0  0
 20 21  1  0  0  0
 21 22  2  0  0  0
 21 23  1  0  0  0
 18 13  1  0  0  0
 23 15  1  0  0  0
  6  1  1  0  0  0
 32 27  1  0  0  0
M  END
> <minimizedAffinity>
-5.56784

$$$$



 35 39  0  0  0  0  0  0  0  0999 V2000
  -23.9392   42.5497   15.7882 C   0  0  0  0  0  0  0  0  0  0  0  0
  -24.1185   44.0362   15.6974 O   0  0  0  0  0  0  0  0  0  0  0  0
  -22.7629   41.9796   16.5238 N   0  0  0  0  0  0  0  0  0  0  0  0
  -21.7658   42.8960   17.1687 C   0  0  0  0  0  0  0  0  0  0  0  0
  -20.5894   42.3259   17.9044 C   0  0  0  0  0  0  0  0  0  0  0  0
  -20.4102   40.8394   17.9951 N   0  0  0  0  0  0  0  0  0  0  0  0
  -21.4074   39.9230   17.3502 C   0  0  0  0  0  0  0  0  0  0  0  0
  -22.5837   40.4931   16.6145 C   0  0  0  0  0  0  0  0  0  0  0  0
  -26.9306   39.8006   13.8533 C   0  0  0  0  0  0  0  0  0  0  0  0
  -27.2239   40.4027   15.1955 C   0  0  0  0  0  0  0  0  0  0  0  0
  -26.2268   41.3191   15.8404 C   0  0  0  0  0  0  0  0  0  0  0  0
  -24.9364   41.6333   15.1432 C   0  0  0  0  0  0  0  0  0  0  0  0
  -24.6431   41.0311   13.8011 C   0  0  0  0  0  0  0  0  0  0  0  0
  -25.6402   40.1148   13.1561 C   0  0  0  0  0  0  0  0  0  0  0  0
  -26.5940   36.5801   13.4475 C   0  0  0  0  0  0  0  0  0  0  0  0
  -27.7730   37.4038   13.0218 C   0  0  0  0  0  0  0  0  0  0  0  0
  -29.0043   36.8919   12.3349 C   0  0  0  0  0  0  0  0  0  0  0  0
  -29.9201   38.0559   12.0969 C   0  0  0  0  0  0  0  0  0  0  0  0
  -29.2548   39.2871   12.6367 C   0  0  0  0  0  0  0  0  0  0  0  0
  -27.9278   38.8841   13.2084 N   0  0  0  0  0  0  0  0  0  0  0  0
  -29.8176   40.6773   12.6096 C   0  0  0  0  0  0  0  0  0  0  0  0
  -19.2338   40.2694   18.7308 S   0  0  0  0  0  0  0  0  0  0  0  0
  -19.0912   41.5514   19.4962 O   0  0  0  0  0  0  0  0  0  0  0  0
  -19.3765   38.9873   17.9653 O   0  0  0  0  0  0  0  0  0  0  0  0
  -18.0575   39.6992   19.4664 C   0  0  0  0  0  0  0  0  0  0  0  0
  -18.2458   38.5378   20.3968 C   0  0  0  0  0  0  0  0  0  0  0  0
  -17.0695   37.9677   21.1324 C   0  0  0  0  0  0  0  0  0  0  0  0
  -15.7048   38.5590   20.9376 C   0  0  0  0  0  0  0  0  0  0  0  0
  -15.5164   39.7204   20.0073 C   0  0  0  0  0  0  0  0  0  0  0  0
  -16.6928   40.2905   19.2717 C   0  0  0  0  0  0  0  0  0  0  0  0
  -14.1517   40.3117   19.8125 N   0  0  0  0  0  0  0  0  0  0  0  0
  -12.9754   39.7416   20.5481 C   0  0  0  0  0  0  0  0  0  0  0  0
  -11.6106   40.3329   20.3533 O   0  0  0  0  0  0  0  0  0  0  0  0
  -13.1637   38.5801   21.4785 C   0  0  0  0  0  0  0  0  0  0  0  0
  -14.5284   37.9888   21.6733 O   0  0  0  0  0  0  0  0  0  0  0  0
 15 16  1  0  0  0
 16 17  2  0  0  0
 17 18  1  0  0  0
 18 19  2  0  0  0
 19 20  1  0  0  0
 20  9  1  0  0  0
  9 10  2  0  0  0
 10 11  1  0  0  0
 11 12  2  0  0  0
 12 13  1  0  0  0
 13 14  2  0  0  0
 12  1  1  0  0  0
  1  2  2  0  0  0
  1  3  1  0  0  0
  3  4  1  0  0  0
  4  5  1  0  0  0
  5  6  1  0  0  0
  6  7  1  0  0  0
  7  8  1  0  0  0
  6 22  1  0  0  0
 22 23  2  0  0  0
 22 24  2  0  0  0
 22 25  1  0  0  0
 25 26  2  0  0  0
 26 27  1  0  0  0
 27 28  2  0  0  0
 28 29  1  0  0  0
 29 30  2  0  0  0
 29 31  1  0  0  0
 31 32  1  0  0  0
 32 33  2  0  0  0
 32 34  1  0  0  0
 34 35  1  0  0  0
 19 21  1  0  0  0
 20 16  1  0  0  0
 14  9  1  0  0  0
  8  3  1  0  0  0
 30 25  1  0  0  0
 35 28  1  0  0  0
M  END
> <minimizedAffinity>
-5.64312

$$$$



 33 36  0  0  0  0  0  0  0  0999 V2000
  -22.1517   39.5236   17.2647 N   0  0  0  0  0  0  0  0  0  0  0  0
  -20.8582   39.7801   17.9796 C   0  0  0  0  0  0  0  0  0  0  0  0
  -20.3562   41.1845   18.1411 C   0  0  0  0  0  0  0  0  0  0  0  0
  -21.1478   42.3322   17.5878 N   0  0  0  0  0  0  0  0  0  0  0  0
  -22.4413   42.0756   16.8730 C   0  0  0  0  0  0  0  0  0  0  0  0
  -22.9432   40.6714   16.7114 C   0  0  0  0  0  0  0  0  0  0  0  0
  -20.6459   43.7364   17.7494 C   0  0  0  0  0  0  0  0  0  0  0  0
  -21.4375   44.8842   17.1961 O   0  0  0  0  0  0  0  0  0  0  0  0
  -19.3524   43.9930   18.4642 C   0  0  0  0  0  0  0  0  0  0  0  0
  -19.3248   44.0646   19.9622 C   0  0  0  0  0  0  0  0  0  0  0  0
  -18.0313   44.3212   20.6771 C   0  0  0  0  0  0  0  0  0  0  0  0
  -16.7654   44.5061   19.8940 C   0  0  0  0  0  0  0  0  0  0  0  0
  -16.7930   44.4344   18.3959 C   0  0  0  0  0  0  0  0  0  0  0  0
  -18.0865   44.1779   17.6810 C   0  0  0  0  0  0  0  0  0  0  0  0
  -18.1141   44.1062   16.1830 F   0  0  0  0  0  0  0  0  0  0  0  0
  -15.4719   44.7626   20.6088 C   0  0  0  0  0  0  0  0  0  0  0  0
  -14.1784   45.0192   21.3237 N   0  0  0  0  0  0  0  0  0  0  0  0
  -22.6536   38.1194   17.1032 S   0  0  0  0  0  0  0  0  0  0  0  0
  -21.2412   37.6143   17.1046 O   0  0  0  0  0  0  0  0  0  0  0  0
  -24.0660   38.6244   17.1017 O   0  0  0  0  0  0  0  0  0  0  0  0
  -25.9953   32.2513   15.8191 C   0  0  0  0  0  0  0  0  0  0  0  0
  -26.8276   33.4046   15.3429 C   0  0  0  0  0  0  0  0  0  0  0  0
  -28.1619   33.1537   14.7050 O   0  0  0  0  0  0  0  0  0  0  0  0
  -26.3258   34.8089   15.5044 N   0  0  0  0  0  0  0  0  0  0  0  0
  -24.9915   35.0599   16.1422 C   0  0  0  0  0  0  0  0  0  0  0  0
  -24.4897   36.4641   16.3038 C   0  0  0  0  0  0  0  0  0  0  0  0
  -23.1555   36.7150   16.9416 C   0  0  0  0  0  0  0  0  0  0  0  0
  -22.3231   35.5616   17.4179 C   0  0  0  0  0  0  0  0  0  0  0  0
  -22.8249   34.1574   17.2564 C   0  0  0  0  0  0  0  0  0  0  0  0
  -24.1591   33.9065   16.6185 C   0  0  0  0  0  0  0  0  0  0  0  0
  -24.6610   32.5021   16.4570 O   0  0  0  0  0  0  0  0  0  0  0  0
  -27.0850   30.1209   16.8312 C   0  0  0  0  0  0  0  0  0  0  0  0
  -26.4972   30.8469   15.6576 C   0  0  0  0  0  0  0  0  0  0  0  0
 32 33  1  0  0  0
 21 33  1  0  0  0
 21 22  1  0  0  0
 22 23  2  0  0  0
 22 24  1  0  0  0
 24 25  1  0  0  0
 25 26  2  0  0  0
 26 27  1  0  0  0
 27 28  2  0  0  0
 28 29  1  0  0  0
 29 30  2  0  0  0
 30 31  1  0  0  0
 27 18  1  0  0  0
 18 19  2  0  0  0
 18 20  2  0  0  0
 18  1  1  0  0  0
  1  2  1  0  0  0
  2  3  1  0  0  0
  3  4  1  0  0  0
  4  5  1  0  0  0
  5  6  1  0  0  0
  4  7  1  0  0  0
  7  8  2  0  0  0
  7  9  1  0  0  0
  9 10  2  0  0  0
 10 11  1  0  0  0
 11 12  2  0  0  0
 12 13  1  0  0  0
 13 14  2  0  0  0
 14 15  1  0  0  0
 12 16  1  0  0  0
 16 17  3  0  0  0
 31 21  1  0  0  0
 30 25  1  0  0  0
  6  1  1  0  0  0
 14  9  1  0  0  0
M  END
> <minimizedAffinity>
-5.06919

$$$$



 33 36  0  0  0  0  0  0  0  0999 V2000
  -27.2459   36.2218   13.4901 C   0  0  0  0  0  0  0  0  0  0  0  0
  -25.9203   36.5753   12.8839 C   0  0  0  0  0  0  0  0  0  0  0  0
  -25.5193   38.0139   12.7437 C   0  0  0  0  0  0  0  0  0  0  0  0
  -26.4441   39.0990   13.2097 C   0  0  0  0  0  0  0  0  0  0  0  0
  -27.7698   38.7455   13.8160 C   0  0  0  0  0  0  0  0  0  0  0  0
  -28.1707   37.3069   13.9562 C   0  0  0  0  0  0  0  0  0  0  0  0
  -25.1602   36.7477   16.8253 H   0  0  0  0  0  0  0  0  0  0  0  0
  -25.9891   36.0929   15.7603 N   0  0  0  0  0  0  0  0  0  0  0  0
  -26.3899   34.6542   15.9006 C   0  0  0  0  0  0  0  0  0  0  0  0
  -27.2188   33.9993   14.8356 C   0  0  0  0  0  0  0  0  0  0  0  0
  -27.6468   34.7832   13.6303 C   0  0  0  0  0  0  0  0  0  0  0  0
  -27.6197   32.5608   14.9758 C   0  0  0  0  0  0  0  0  0  0  0  0
  -28.4486   31.9059   13.9108 O   0  0  0  0  0  0  0  0  0  0  0  0
  -27.1917   31.7770   16.1810 N   0  0  0  0  0  0  0  0  0  0  0  0
  -26.3629   32.4318   17.2460 C   0  0  0  0  0  0  0  0  0  0  0  0
  -25.9620   33.8704   17.1058 N   0  0  0  0  0  0  0  0  0  0  0  0
  -25.1479   34.2442   18.3089 N   0  0  0  0  0  0  0  0  0  0  0  0
  -25.0458   33.0366   19.1928 C   0  0  0  0  0  0  0  0  0  0  0  0
  -25.7966   31.9164   18.5358 S   0  0  0  0  0  0  0  0  0  0  0  0
  -24.3201   32.9621   20.5035 C   0  0  0  0  0  0  0  0  0  0  0  0
  -28.6948   39.8306   14.2821 O   0  0  0  0  0  0  0  0  0  0  0  0
  -29.5946   40.5219   13.3011 C   0  0  0  0  0  0  0  0  0  0  0  0
  -26.0433   40.5377   13.0695 O   0  0  0  0  0  0  0  0  0  0  0  0
  -25.0850   41.1480   14.0489 S   0  0  0  0  0  0  0  0  0  0  0  0
  -26.2390   41.6532   14.8633 O   0  0  0  0  0  0  0  0  0  0  0  0
  -23.9311   40.6429   13.2345 O   0  0  0  0  0  0  0  0  0  0  0  0
  -24.1267   41.7584   15.0282 C   0  0  0  0  0  0  0  0  0  0  0  0
  -22.8981   41.0051   15.4441 C   0  0  0  0  0  0  0  0  0  0  0  0
  -21.9398   41.6154   16.4235 C   0  0  0  0  0  0  0  0  0  0  0  0
  -22.2101   42.9791   16.9869 C   0  0  0  0  0  0  0  0  0  0  0  0
  -23.4387   43.7323   16.5710 C   0  0  0  0  0  0  0  0  0  0  0  0
  -24.3970   43.1220   15.5917 C   0  0  0  0  0  0  0  0  0  0  0  0
  -21.2518   43.5894   17.9662 C   0  0  0  0  0  0  0  0  0  0  0  0
  7  8  1  0  0  0
  8  9  2  0  0  0
  9 10  1  0  0  0
 10 11  2  0  0  0
 11  1  1  0  0  0
  1  2  2  0  0  0
  2  3  1  0  0  0
  3  4  2  0  0  0
  4  5  1  0  0  0
  5  6  2  0  0  0
  5 21  1  0  0  0
 21 22  1  0  0  0
  4 23  1  0  0  0
 23 24  1  0  0  0
 24 25  2  0  0  0
 24 26  2  0  0  0
 24 27  1  0  0  0
 27 28  2  0  0  0
 28 29  1  0  0  0
 29 30  2  0  0  0
 30 31  1  0  0  0
 31 32  2  0  0  0
 30 33  1  0  0  0
 10 12  1  0  0  0
 12 13  2  0  0  0
 12 14  1  0  0  0
 14 15  2  0  0  0
 15 16  1  0  0  0
 16 17  1  0  0  0
 17 18  2  0  0  0
 18 19  1  0  0  0
 18 20  1  0  0  0
 16  9  1  0  0  0
  6  1  1  0  0  0
 32 27  1  0  0  0
 19 15  1  0  0  0
M  END
> <minimizedAffinity>
-5.52441

$$$$



 33 34  0  0  0  0  0  0  0  0999 V2000
  -28.9508   38.2298   13.3185 C   0  0  0  0  0  0  0  0  0  0  0  0
  -29.1056   38.2685   14.8100 O   0  0  0  0  0  0  0  0  0  0  0  0
  -29.6769   39.2255   12.4631 N   0  0  0  0  0  0  0  0  0  0  0  0
  -29.2431   38.8266   11.0837 C   0  0  0  0  0  0  0  0  0  0  0  0
  -29.1862   38.9106    9.5872 C   0  0  0  0  0  0  0  0  0  0  0  0
  -29.5161   39.4631    8.2323 O   0  0  0  0  0  0  0  0  0  0  0  0
  -30.1756   40.3885    7.2532 C   0  0  0  0  0  0  0  0  0  0  0  0
  -31.0509   41.5269    6.8192 C   0  0  0  0  0  0  0  0  0  0  0  0
  -31.9904   42.6812    7.0055 O   0  0  0  0  0  0  0  0  0  0  0  0
  -32.8318   43.6521    7.7798 C   0  0  0  0  0  0  0  0  0  0  0  0
  -33.4296   44.2715    9.0081 C   0  0  0  0  0  0  0  0  0  0  0  0
  -33.6804   44.4325   10.4782 O   0  0  0  0  0  0  0  0  0  0  0  0
  -33.5409   44.1071   11.9358 C   0  0  0  0  0  0  0  0  0  0  0  0
  -33.0351   43.3516   13.1289 C   0  0  0  0  0  0  0  0  0  0  0  0
  -32.2506   42.2967   13.8512 O   0  0  0  0  0  0  0  0  0  0  0  0
  -31.3229   41.1247   13.9778 C   0  0  0  0  0  0  0  0  0  0  0  0
  -30.4125   40.0383   13.4868 C   0  0  0  0  0  0  0  0  0  0  0  0
  -28.0702   37.1956   12.6823 C   0  0  0  0  0  0  0  0  0  0  0  0
  -26.6201   37.4922   12.4391 N   0  0  0  0  0  0  0  0  0  0  0  0
  -25.9545   38.6246   13.1634 S   0  0  0  0  0  0  0  0  0  0  0  0
  -25.8398   37.7715   14.3918 O   0  0  0  0  0  0  0  0  0  0  0  0
  -26.0691   39.4777   11.9350 O   0  0  0  0  0  0  0  0  0  0  0  0
  -23.2920   43.1543   16.0606 C   0  0  0  0  0  0  0  0  0  0  0  0
  -23.9577   42.0219   15.3363 C   0  0  0  0  0  0  0  0  0  0  0  0
  -23.1516   40.8353   14.8975 C   0  0  0  0  0  0  0  0  0  0  0  0
  -23.8172   39.7029   14.1732 C   0  0  0  0  0  0  0  0  0  0  0  0
  -25.2888   39.7570   13.8877 C   0  0  0  0  0  0  0  0  0  0  0  0
  -26.0948   40.9437   14.3265 C   0  0  0  0  0  0  0  0  0  0  0  0
  -25.4292   42.0760   15.0508 C   0  0  0  0  0  0  0  0  0  0  0  0
  -28.6397   35.8647   12.2895 C   0  0  0  0  0  0  0  0  0  0  0  0
  -28.9860   34.8561   13.3443 C   0  0  0  0  0  0  0  0  0  0  0  0
  -27.9753   34.4868   14.3894 C   0  0  0  0  0  0  0  0  0  0  0  0
  -30.3429   34.2169   13.3541 C   0  0  0  0  0  0  0  0  0  0  0  0
 23 24  1  0  0  0
 24 25  2  0  0  0
 25 26  1  0  0  0
 26 27  2  0  0  0
 27 28  1  0  0  0
 28 29  2  0  0  0
 27 20  1  0  0  0
 20 21  2  0  0  0
 20 22  2  0  0  0
 20 19  1  0  0  0
 19 18  1  0  0  0
 18 30  1  0  0  0
 30 31  1  0  0  0
 31 32  1  0  0  0
 31 33  1  0  0  0
 18  1  1  0  0  0
  1  2  2  0  0  0
  1  3  1  0  0  0
  3  4  1  0  0  0
  4  5  1  0  0  0
  5  6  1  0  0  0
  6  7  1  0  0  0
  7  8  1  0  0  0
  8  9  1  0  0  0
  9 10  1  0  0  0
 10 11  1  0  0  0
 11 12  1  0  0  0
 12 13  1  0  0  0
 13 14  1  0  0  0
 14 15  1  0  0  0
 15 16  1  0  0  0
 16 17  1  0  0  0
 29 24  1  0  0  0
 17  3  1  0  0  0
M  END
> <minimizedAffinity>
-5.51608

$$$$



 33 37  0  0  0  0  0  0  0  0999 V2000
  -32.6102   36.8626   17.8995 N   0  0  0  0  0  0  0  0  0  0  0  0
  -33.8624   37.6831   17.8072 C   0  0  0  0  0  0  0  0  0  0  0  0
  -33.8875   38.9207   16.9599 C   0  0  0  0  0  0  0  0  0  0  0  0
  -32.6603   39.3376   16.2049 N   0  0  0  0  0  0  0  0  0  0  0  0
  -31.4080   38.5170   16.2972 C   0  0  0  0  0  0  0  0  0  0  0  0
  -31.3829   37.2795   17.1445 C   0  0  0  0  0  0  0  0  0  0  0  0
  -32.5851   35.6251   18.7467 S   0  0  0  0  0  0  0  0  0  0  0  0
  -31.2198   35.9944   19.2459 O   0  0  0  0  0  0  0  0  0  0  0  0
  -33.9505   35.2557   18.2476 O   0  0  0  0  0  0  0  0  0  0  0  0
  -33.8436   33.8000   20.1015 C   0  0  0  0  0  0  0  0  0  0  0  0
  -33.8187   32.5625   20.9488 C   0  0  0  0  0  0  0  0  0  0  0  0
  -32.5102   31.9124   21.2886 C   0  0  0  0  0  0  0  0  0  0  0  0
  -31.2268   32.4999   20.7811 C   0  0  0  0  0  0  0  0  0  0  0  0
  -31.2518   33.7375   19.9338 C   0  0  0  0  0  0  0  0  0  0  0  0
  -32.5602   34.3875   19.5940 C   0  0  0  0  0  0  0  0  0  0  0  0
  -29.9184   31.8499   21.1209 O   0  0  0  0  0  0  0  0  0  0  0  0
  -29.8934   30.6124   21.9682 C   0  0  0  0  0  0  0  0  0  0  0  0
  -31.1769   30.0249   22.4756 C   0  0  0  0  0  0  0  0  0  0  0  0
  -32.4853   30.6749   22.1359 O   0  0  0  0  0  0  0  0  0  0  0  0
  -32.6853   40.5751   15.3576 C   0  0  0  0  0  0  0  0  0  0  0  0
  -32.5408   40.4675   13.8685 C   0  0  0  0  0  0  0  0  0  0  0  0
  -33.5831   39.7492   13.0638 O   0  0  0  0  0  0  0  0  0  0  0  0
  -31.3540   41.0783   13.1840 N   0  0  0  0  0  0  0  0  0  0  0  0
  -31.2095   40.9707   11.6949 C   0  0  0  0  0  0  0  0  0  0  0  0
  -31.4290   42.0766   10.7055 C   0  0  0  0  0  0  0  0  0  0  0  0
  -31.1753   41.5277    9.3328 C   0  0  0  0  0  0  0  0  0  0  0  0
  -30.7990   40.0825    9.4738 C   0  0  0  0  0  0  0  0  0  0  0  0
  -30.8201   39.7383   10.9337 S   0  0  0  0  0  0  0  0  0  0  0  0
  -30.5453   39.5335    8.1011 C   0  0  0  0  0  0  0  0  0  0  0  0
  -30.7648   40.6395    7.1118 C   0  0  0  0  0  0  0  0  0  0  0  0
  -31.1542   41.8719    7.8730 C   0  0  0  0  0  0  0  0  0  0  0  0
  -31.8316   43.4843   11.0316 C   0  0  0  0  0  0  0  0  0  0  0  0
  -32.2341   44.8920   11.3577 N   0  0  0  0  0  0  0  0  0  0  0  0
 10 11  2  0  0  0
 11 12  1  0  0  0
 12 13  2  0  0  0
 13 14  1  0  0  0
 14 15  2  0  0  0
 15  7  1  0  0  0
  7  8  2  0  0  0
  7  9  2  0  0  0
  7  1  1  0  0  0
  1  2  1  0  0  0
  2  3  1  0  0  0
  3  4  1  0  0  0
  4  5  1  0  0  0
  5  6  1  0  0  0
  4 20  1  0  0  0
 20 21  1  0  0  0
 21 22  2  0  0  0
 21 23  1  0  0  0
 23 24  1  0  0  0
 24 25  2  0  0  0
 25 26  1  0  0  0
 26 27  2  0  0  0
 27 28  1  0  0  0
 27 29  1  0  0  0
 29 30  1  0  0  0
 30 31  1  0  0  0
 25 32  1  0  0  0
 32 33  3  0  0  0
 13 16  1  0  0  0
 16 17  1  0  0  0
 17 18  1  0  0  0
 18 19  1  0  0  0
 15 10  1  0  0  0
 19 12  1  0  0  0
  6  1  1  0  0  0
 28 24  1  0  0  0
 31 26  1  0  0  0
M  END
> <minimizedAffinity>
-5.42203

$$$$



 34 38  0  0  0  0  0  0  0  0999 V2000
  -26.0065   39.5674   14.0954 N   0  0  0  0  0  0  0  0  0  0  0  0
  -25.9281   38.7186   15.3296 C   0  0  0  0  0  0  0  0  0  0  0  0
  -24.6811   38.7205   16.1632 O   0  0  0  0  0  0  0  0  0  0  0  0
  -27.2535   39.5655   13.2618 C   0  0  0  0  0  0  0  0  0  0  0  0
  -28.5516   40.2286   13.6156 C   0  0  0  0  0  0  0  0  0  0  0  0
  -29.5217   39.9730   12.5005 C   0  0  0  0  0  0  0  0  0  0  0  0
  -28.8232   39.1520   11.4574 S   0  0  0  0  0  0  0  0  0  0  0  0
  -30.1364   39.2359   10.7374 O   0  0  0  0  0  0  0  0  0  0  0  0
  -28.3993   38.3485   10.2638 O   0  0  0  0  0  0  0  0  0  0  0  0
  -27.4214   38.9001   11.9279 C   0  0  0  0  0  0  0  0  0  0  0  0
  -24.8378   40.4181   13.6947 C   0  0  0  0  0  0  0  0  0  0  0  0
  -23.1726   43.4523   16.5705 C   0  0  0  0  0  0  0  0  0  0  0  0
  -22.3762   42.2285   16.2270 C   0  0  0  0  0  0  0  0  0  0  0  0
  -22.9312   41.2171   15.2684 C   0  0  0  0  0  0  0  0  0  0  0  0
  -24.2827   41.4295   14.6533 C   0  0  0  0  0  0  0  0  0  0  0  0
  -25.0791   42.6533   14.9969 C   0  0  0  0  0  0  0  0  0  0  0  0
  -24.5241   43.6647   15.9554 C   0  0  0  0  0  0  0  0  0  0  0  0
  -27.0967   37.8680   15.7303 C   0  0  0  0  0  0  0  0  0  0  0  0
  -27.0121   36.3748   15.6149 N   0  0  0  0  0  0  0  0  0  0  0  0
  -26.3306   35.4530   16.5822 C   0  0  0  0  0  0  0  0  0  0  0  0
  -25.6140   35.8625   17.8347 O   0  0  0  0  0  0  0  0  0  0  0  0
  -26.4914   34.0498   16.0771 C   0  0  0  0  0  0  0  0  0  0  0  0
  -25.7235   34.1515   17.3616 C   0  0  0  0  0  0  0  0  0  0  0  0
  -25.1960   32.9115   18.0204 C   0  0  0  0  0  0  0  0  0  0  0  0
  -25.4363   31.5696   17.3946 O   0  0  0  0  0  0  0  0  0  0  0  0
  -26.2042   31.4678   16.1100 C   0  0  0  0  0  0  0  0  0  0  0  0
  -26.7317   32.7079   15.4512 C   0  0  0  0  0  0  0  0  0  0  0  0
  -27.4995   32.6061   14.1667 C   0  0  0  0  0  0  0  0  0  0  0  0
  -27.7398   31.2643   13.5409 C   0  0  0  0  0  0  0  0  0  0  0  0
  -27.2123   30.0242   14.1996 C   0  0  0  0  0  0  0  0  0  0  0  0
  -26.4445   30.1260   15.4842 C   0  0  0  0  0  0  0  0  0  0  0  0
  -27.2723   34.1044   14.7976 N   0  0  0  0  0  0  0  0  0  0  0  0
  -27.5942   35.5413   14.5119 C   0  0  0  0  0  0  0  0  0  0  0  0
  -28.3630   36.0546   13.3307 O   0  0  0  0  0  0  0  0  0  0  0  0
 12 13  2  0  0  0
 13 14  1  0  0  0
 14 15  2  0  0  0
 15 16  1  0  0  0
 16 17  2  0  0  0
 15 11  1  0  0  0
 11  1  1  0  0  0
  4  1  1  0  0  0
  4  5  1  0  0  0
  5  6  1  0  0  0
  6  7  1  0  0  0
  7  8  2  0  0  0
  7  9  2  0  0  0
  7 10  1  0  0  0
  1  2  1  0  0  0
  2  3  2  0  0  0
  2 18  1  0  0  0
 18 19  1  0  0  0
 19 20  1  0  0  0
 20 21  2  0  0  0
 20 22  1  0  0  0
 22 23  1  0  0  0
 23 24  1  0  0  0
 24 25  1  0  0  0
 25 26  1  0  0  0
 26 27  2  0  0  0
 27 28  1  0  0  0
 28 29  2  0  0  0
 29 30  1  0  0  0
 30 31  2  0  0  0
 22 32  1  0  0  0
 32 33  1  0  0  0
 33 34  2  0  0  0
 17 12  1  0  0  0
 10  4  1  0  0  0
 33 19  1  0  0  0
 27 22  1  0  0  0
 31 26  1  0  0  0
M  END
> <minimizedAffinity>
-7.25755

$$$$



 31 34  0  0  0  0  0  0  0  0999 V2000
  -25.6277   39.6684   13.5132 C   0  0  0  0  0  0  0  0  0  0  0  0
  -24.3524   38.9497   13.8404 C   0  0  0  0  0  0  0  0  0  0  0  0
  -23.3014   39.6268   14.6692 C   0  0  0  0  0  0  0  0  0  0  0  0
  -23.5256   41.0226   15.1706 C   0  0  0  0  0  0  0  0  0  0  0  0
  -24.8009   41.7413   14.8434 C   0  0  0  0  0  0  0  0  0  0  0  0
  -25.8519   41.0642   14.0147 C   0  0  0  0  0  0  0  0  0  0  0  0
  -24.7410   43.1016   15.4727 S   0  0  0  0  0  0  0  0  0  0  0  0
  -23.4286   43.2236   16.1889 C   0  0  0  0  0  0  0  0  0  0  0  0
  -22.9513   44.4205   16.9569 O   0  0  0  0  0  0  0  0  0  0  0  0
  -22.6775   41.9388   16.0022 N   0  0  0  0  0  0  0  0  0  0  0  0
  -26.6788   38.9913   12.6844 S   0  0  0  0  0  0  0  0  0  0  0  0
  -26.1378   39.6573   11.4541 O   0  0  0  0  0  0  0  0  0  0  0  0
  -27.2198   38.3253   13.9148 O   0  0  0  0  0  0  0  0  0  0  0  0
  -27.7299   38.3142   11.8558 N   0  0  0  0  0  0  0  0  0  0  0  0
  -30.7113   40.9314   11.7474 C   0  0  0  0  0  0  0  0  0  0  0  0
  -31.2900   40.6459   10.3933 C   0  0  0  0  0  0  0  0  0  0  0  0
  -30.6820   39.5832    9.5267 C   0  0  0  0  0  0  0  0  0  0  0  0
  -29.4953   38.8060   10.0141 C   0  0  0  0  0  0  0  0  0  0  0  0
  -28.9166   39.0915   11.3683 C   0  0  0  0  0  0  0  0  0  0  0  0
  -29.5246   40.1541   12.2349 C   0  0  0  0  0  0  0  0  0  0  0  0
  -31.2607   39.2978    8.1726 C   0  0  0  0  0  0  0  0  0  0  0  0
  -31.8395   39.0124    6.8185 N   0  0  0  0  0  0  0  0  0  0  0  0
  -21.3171   41.6250   16.5508 C   0  0  0  0  0  0  0  0  0  0  0  0
  -21.1309   41.4255   18.0257 C   0  0  0  0  0  0  0  0  0  0  0  0
  -21.1327   42.6079   18.9487 O   0  0  0  0  0  0  0  0  0  0  0  0
  -20.9429   40.0435   18.5777 N   0  0  0  0  0  0  0  0  0  0  0  0
  -20.7567   39.8439   20.0526 C   0  0  0  0  0  0  0  0  0  0  0  0
  -20.5687   38.4618   20.6047 C   0  0  0  0  0  0  0  0  0  0  0  0
  -20.5669   37.2794   19.6817 O   0  0  0  0  0  0  0  0  0  0  0  0
  -20.7531   37.4791   18.2067 C   0  0  0  0  0  0  0  0  0  0  0  0
  -20.9411   38.8611   17.6547 C   0  0  0  0  0  0  0  0  0  0  0  0
 15 16  2  0  0  0
 16 17  1  0  0  0
 17 18  2  0  0  0
 18 19  1  0  0  0
 19 20  2  0  0  0
 19 14  1  0  0  0
 14 11  1  0  0  0
 11 12  2  0  0  0
 11 13  2  0  0  0
 11  1  1  0  0  0
  1  2  2  0  0  0
  2  3  1  0  0  0
  3  4  2  0  0  0
  4  5  1  0  0  0
  5  6  2  0  0  0
  5  7  1  0  0  0
  7  8  1  0  0  0
  8  9  2  0  0  0
  8 10  1  0  0  0
 10 23  1  0  0  0
 23 24  1  0  0  0
 24 25  2  0  0  0
 24 26  1  0  0  0
 26 27  1  0  0  0
 27 28  1  0  0  0
 28 29  1  0  0  0
 29 30  1  0  0  0
 30 31  1  0  0  0
 17 21  1  0  0  0
 21 22  3  0  0  0
 20 15  1  0  0  0
  6  1  1  0  0  0
 10  4  1  0  0  0
 31 26  1  0  0  0
M  END
> <minimizedAffinity>
-5.52464

$$$$



 32 35  0  0  0  0  0  0  0  0999 V2000
  -30.5436   36.5046   16.7909 S   0  0  0  0  0  0  0  0  0  0  0  0
  -29.3707   36.0130   17.5863 O   0  0  0  0  0  0  0  0  0  0  0  0
  -31.7165   36.9961   15.9954 O   0  0  0  0  0  0  0  0  0  0  0  0
  -33.7084   32.5872   21.4694 C   0  0  0  0  0  0  0  0  0  0  0  0
  -32.2247   32.4163   21.6085 C   0  0  0  0  0  0  0  0  0  0  0  0
  -31.6707   31.4960   22.6556 O   0  0  0  0  0  0  0  0  0  0  0  0
  -31.2950   33.1655   20.7007 N   0  0  0  0  0  0  0  0  0  0  0  0
  -31.8490   34.0858   19.6536 C   0  0  0  0  0  0  0  0  0  0  0  0
  -30.9193   34.8350   18.7458 C   0  0  0  0  0  0  0  0  0  0  0  0
  -31.4733   35.7552   17.6988 C   0  0  0  0  0  0  0  0  0  0  0  0
  -32.9570   35.9262   17.5596 C   0  0  0  0  0  0  0  0  0  0  0  0
  -33.8867   35.1769   18.4674 C   0  0  0  0  0  0  0  0  0  0  0  0
  -33.3327   34.2567   19.5145 C   0  0  0  0  0  0  0  0  0  0  0  0
  -34.2624   33.5074   20.4224 O   0  0  0  0  0  0  0  0  0  0  0  0
  -34.7671   32.2403   23.8165 C   0  0  0  0  0  0  0  0  0  0  0  0
  -34.6381   31.8379   22.3773 C   0  0  0  0  0  0  0  0  0  0  0  0
  -29.6139   37.2538   15.8830 N   0  0  0  0  0  0  0  0  0  0  0  0
  -28.3493   37.8478   16.4290 C   0  0  0  0  0  0  0  0  0  0  0  0
  -27.4196   38.5971   15.5211 C   0  0  0  0  0  0  0  0  0  0  0  0
  -27.7545   38.7524   14.0673 N   0  0  0  0  0  0  0  0  0  0  0  0
  -29.0190   38.1584   13.5213 C   0  0  0  0  0  0  0  0  0  0  0  0
  -29.9487   37.4092   14.4291 C   0  0  0  0  0  0  0  0  0  0  0  0
  -26.8248   39.5016   13.1594 C   0  0  0  0  0  0  0  0  0  0  0  0
  -27.1596   39.6570   11.7055 O   0  0  0  0  0  0  0  0  0  0  0  0
  -25.5602   40.0956   13.7054 C   0  0  0  0  0  0  0  0  0  0  0  0
  -24.2737   39.3290   13.6202 C   0  0  0  0  0  0  0  0  0  0  0  0
  -23.0092   39.9230   14.1662 C   0  0  0  0  0  0  0  0  0  0  0  0
  -23.0311   41.2835   14.7975 C   0  0  0  0  0  0  0  0  0  0  0  0
  -24.3176   42.0501   14.8827 C   0  0  0  0  0  0  0  0  0  0  0  0
  -25.5822   41.4562   14.3367 C   0  0  0  0  0  0  0  0  0  0  0  0
  -24.3395   43.4106   15.5139 O   0  0  0  0  0  0  0  0  0  0  0  0
  -23.4009   43.7304   16.6394 C   0  0  0  0  0  0  0  0  0  0  0  0
 15 16  1  0  0  0
  4 16  1  0  0  0
  4  5  1  0  0  0
  5  6  2  0  0  0
  5  7  1  0  0  0
  7  8  1  0  0  0
  8  9  2  0  0  0
  9 10  1  0  0  0
 10 11  2  0  0  0
 11 12  1  0  0  0
 12 13  2  0  0  0
 13 14  1  0  0  0
 10  1  1  0  0  0
  1  2  2  0  0  0
  1  3  2  0  0  0
  1 17  1  0  0  0
 17 18  1  0  0  0
 18 19  1  0  0  0
 19 20  1  0  0  0
 20 21  1  0  0  0
 21 22  1  0  0  0
 20 23  1  0  0  0
 23 24  2  0  0  0
 23 25  1  0  0  0
 25 26  2  0  0  0
 26 27  1  0  0  0
 27 28  2  0  0  0
 28 29  1  0  0  0
 29 30  2  0  0  0
 29 31  1  0  0  0
 31 32  1  0  0  0
 14  4  1  0  0  0
 13  8  1  0  0  0
 22 17  1  0  0  0
 30 25  1  0  0  0
M  END
> <minimizedAffinity>
-5.66241

$$$$



 31 34  0  0  0  0  0  0  0  0999 V2000
  -25.8196   37.5178   14.7729 H   0  0  0  0  0  0  0  0  0  0  0  0
  -25.7314   36.7882   15.0815 N   0  0  0  0  0  0  0  0  0  0  0  0
  -26.4726   35.4936   14.9243 C   0  0  0  0  0  0  0  0  0  0  0  0
  -27.6631   35.4166   14.0148 C   0  0  0  0  0  0  0  0  0  0  0  0
  -28.1122   36.6343   13.2627 C   0  0  0  0  0  0  0  0  0  0  0  0
  -28.4042   34.1221   13.8575 C   0  0  0  0  0  0  0  0  0  0  0  0
  -29.5947   34.0451   12.9480 O   0  0  0  0  0  0  0  0  0  0  0  0
  -27.9551   32.9045   14.6096 N   0  0  0  0  0  0  0  0  0  0  0  0
  -26.7647   32.9814   15.5190 C   0  0  0  0  0  0  0  0  0  0  0  0
  -26.0235   34.2760   15.6764 N   0  0  0  0  0  0  0  0  0  0  0  0
  -24.8942   34.0497   16.6373 C   0  0  0  0  0  0  0  0  0  0  0  0
  -24.9375   32.6153   17.0739 N   0  0  0  0  0  0  0  0  0  0  0  0
  -26.0935   31.9550   16.3828 S   0  0  0  0  0  0  0  0  0  0  0  0
  -27.3710   37.9288   13.4200 C   0  0  0  0  0  0  0  0  0  0  0  0
  -26.1797   38.2207   12.5565 C   0  0  0  0  0  0  0  0  0  0  0  0
  -25.4385   39.5152   12.7138 C   0  0  0  0  0  0  0  0  0  0  0  0
  -25.8885   40.5179   13.7347 C   0  0  0  0  0  0  0  0  0  0  0  0
  -27.0797   40.2260   14.5982 C   0  0  0  0  0  0  0  0  0  0  0  0
  -27.8210   38.9315   14.4409 C   0  0  0  0  0  0  0  0  0  0  0  0
  -25.1472   41.8124   13.8919 O   0  0  0  0  0  0  0  0  0  0  0  0
  -24.9772   42.4187   15.2533 C   0  0  0  0  0  0  0  0  0  0  0  0
  -26.1524   43.0363   15.9514 O   0  0  0  0  0  0  0  0  0  0  0  0
  -23.6318   42.4074   15.9166 C   0  0  0  0  0  0  0  0  0  0  0  0
  -22.5963   41.3294   15.7918 C   0  0  0  0  0  0  0  0  0  0  0  0
  -21.4103   41.7278   16.6193 C   0  0  0  0  0  0  0  0  0  0  0  0
  -21.7129   43.0521   17.2555 C   0  0  0  0  0  0  0  0  0  0  0  0
  -23.0859   43.4721   16.8212 S   0  0  0  0  0  0  0  0  0  0  0  0
  -23.8967   35.0774   17.0834 S   0  0  0  0  0  0  0  0  0  0  0  0
  -22.7914   34.2720   16.4672 O   0  0  0  0  0  0  0  0  0  0  0  0
  -25.0020   35.8827   17.6995 O   0  0  0  0  0  0  0  0  0  0  0  0
  -22.8993   36.1050   17.5294 C   0  0  0  0  0  0  0  0  0  0  0  0
  1  2  1  0  0  0
  2  3  2  0  0  0
  3  4  1  0  0  0
  4  5  2  0  0  0
  5 14  1  0  0  0
 14 15  2  0  0  0
 15 16  1  0  0  0
 16 17  2  0  0  0
 17 18  1  0  0  0
 18 19  2  0  0  0
 17 20  1  0  0  0
 20 21  1  0  0  0
 21 22  2  0  0  0
 21 23  1  0  0  0
 23 24  2  0  0  0
 24 25  1  0  0  0
 25 26  2  0  0  0
 26 27  1  0  0  0
  4  6  1  0  0  0
  6  7  2  0  0  0
  6  8  1  0  0  0
  8  9  2  0  0  0
  9 10  1  0  0  0
 10 11  1  0  0  0
 11 12  2  0  0  0
 12 13  1  0  0  0
 11 28  1  0  0  0
 28 29  2  0  0  0
 28 30  2  0  0  0
 28 31  1  0  0  0
 10  3  1  0  0  0
 19 14  1  0  0  0
 27 23  1  0  0  0
 13  9  1  0  0  0
M  END
> <minimizedAffinity>
-5.61884

$$$$



 32 35  0  0  0  0  0  0  0  0999 V2000
  -25.6767   38.6152   14.9056 H   0  0  0  0  0  0  0  0  0  0  0  0
  -25.1463   38.2723   15.3918 N   0  0  0  0  0  0  0  0  0  0  0  0
  -23.8913   38.7449   16.0640 C   0  0  0  0  0  0  0  0  0  0  0  0
  -23.4162   40.1531   15.8608 C   0  0  0  0  0  0  0  0  0  0  0  0
  -24.1961   41.0888   14.9853 C   0  0  0  0  0  0  0  0  0  0  0  0
  -22.1614   40.6256   16.5330 C   0  0  0  0  0  0  0  0  0  0  0  0
  -21.6863   42.0339   16.3298 O   0  0  0  0  0  0  0  0  0  0  0  0
  -21.3815   39.6900   17.4085 N   0  0  0  0  0  0  0  0  0  0  0  0
  -21.8565   38.2818   17.6117 C   0  0  0  0  0  0  0  0  0  0  0  0
  -23.1114   37.8093   16.9395 N   0  0  0  0  0  0  0  0  0  0  0  0
  -23.3319   36.3762   17.3240 C   0  0  0  0  0  0  0  0  0  0  0  0
  -22.2132   35.9632   18.2339 N   0  0  0  0  0  0  0  0  0  0  0  0
  -21.3014   37.1409   18.4117 S   0  0  0  0  0  0  0  0  0  0  0  0
  -25.4510   40.6162   14.3131 C   0  0  0  0  0  0  0  0  0  0  0  0
  -26.7770   40.7902   14.9925 C   0  0  0  0  0  0  0  0  0  0  0  0
  -28.0319   40.3177   14.3203 C   0  0  0  0  0  0  0  0  0  0  0  0
  -27.9608   39.6710   12.9687 C   0  0  0  0  0  0  0  0  0  0  0  0
  -26.6349   39.4970   12.2893 C   0  0  0  0  0  0  0  0  0  0  0  0
  -25.3800   39.9696   12.9615 C   0  0  0  0  0  0  0  0  0  0  0  0
  -26.5637   38.8503   10.9377 Cl  0  0  0  0  0  0  0  0  0  0  0  0
  -29.2157   39.1984   12.2964 O   0  0  0  0  0  0  0  0  0  0  0  0
  -30.0988   38.1948   12.9769 C   0  0  0  0  0  0  0  0  0  0  0  0
  -31.3966   38.6312   13.5896 O   0  0  0  0  0  0  0  0  0  0  0  0
  -29.6840   36.7549   13.0447 C   0  0  0  0  0  0  0  0  0  0  0  0
  -28.5788   36.1176   12.2557 C   0  0  0  0  0  0  0  0  0  0  0  0
  -28.5134   34.6683   12.6367 C   0  0  0  0  0  0  0  0  0  0  0  0
  -29.5782   34.4098   13.6611 C   0  0  0  0  0  0  0  0  0  0  0  0
  -30.3017   35.6994   13.9133 S   0  0  0  0  0  0  0  0  0  0  0  0
  -24.4710   35.5086   16.8771 S   0  0  0  0  0  0  0  0  0  0  0  0
  -23.4989   34.5605   16.2399 O   0  0  0  0  0  0  0  0  0  0  0  0
  -25.4431   36.4567   17.5144 O   0  0  0  0  0  0  0  0  0  0  0  0
  -25.6101   34.6410   16.4302 C   0  0  0  0  0  0  0  0  0  0  0  0
  1  2  1  0  0  0
  2  3  2  0  0  0
  3  4  1  0  0  0
  4  5  2  0  0  0
  5 14  1  0  0  0
 14 15  2  0  0  0
 15 16  1  0  0  0
 16 17  2  0  0  0
 17 18  1  0  0  0
 18 19  2  0  0  0
 18 20  1  0  0  0
 17 21  1  0  0  0
 21 22  1  0  0  0
 22 23  2  0  0  0
 22 24  1  0  0  0
 24 25  2  0  0  0
 25 26  1  0  0  0
 26 27  2  0  0  0
 27 28  1  0  0  0
  4  6  1  0  0  0
  6  7  2  0  0  0
  6  8  1  0  0  0
  8  9  2  0  0  0
  9 10  1  0  0  0
 10 11  1  0  0  0
 11 12  2  0  0  0
 12 13  1  0  0  0
 11 29  1  0  0  0
 29 30  2  0  0  0
 29 31  2  0  0  0
 29 32  1  0  0  0
 10  3  1  0  0  0
 19 14  1  0  0  0
 28 24  1  0  0  0
 13  9  1  0  0  0
M  END
> <minimizedAffinity>
-5.60408

$$$$



 31 34  0  0  0  0  0  0  0  0999 V2000
  -26.6355   37.6561   16.8197 N   0  0  0  0  0  0  0  0  0  0  0  0
  -25.6462   36.5304   16.7548 C   0  0  0  0  0  0  0  0  0  0  0  0
  -24.1653   36.6450   16.9637 C   0  0  0  0  0  0  0  0  0  0  0  0
  -23.2834   37.8175   17.2758 C   0  0  0  0  0  0  0  0  0  0  0  0
  -21.8043   37.6229   17.4319 C   0  0  0  0  0  0  0  0  0  0  0  0
  -21.2071   36.2558   17.2759 C   0  0  0  0  0  0  0  0  0  0  0  0
  -22.0889   35.0833   16.9637 C   0  0  0  0  0  0  0  0  0  0  0  0
  -23.5680   35.2779   16.8076 C   0  0  0  0  0  0  0  0  0  0  0  0
  -24.6799   34.3184   16.5023 N   0  0  0  0  0  0  0  0  0  0  0  0
  -25.9643   35.0925   16.4696 C   0  0  0  0  0  0  0  0  0  0  0  0
  -27.3274   34.5279   16.1993 O   0  0  0  0  0  0  0  0  0  0  0  0
  -28.9341   38.3943   15.8596 C   0  0  0  0  0  0  0  0  0  0  0  0
  -28.3176   39.6686   15.3635 O   0  0  0  0  0  0  0  0  0  0  0  0
  -28.0930   37.3880   16.5877 N   0  0  0  0  0  0  0  0  0  0  0  0
  -30.3915   38.1262   15.6276 C   0  0  0  0  0  0  0  0  0  0  0  0
  -30.8648   37.6695   14.2795 O   0  0  0  0  0  0  0  0  0  0  0  0
  -29.5156   34.2429   12.8001 C   0  0  0  0  0  0  0  0  0  0  0  0
  -29.5925   35.6946   13.1698 C   0  0  0  0  0  0  0  0  0  0  0  0
  -30.7879   36.2178   13.9097 N   0  0  0  0  0  0  0  0  0  0  0  0
  -28.4741   36.6231   12.7997 C   0  0  0  0  0  0  0  0  0  0  0  0
  -27.0403   36.4878   13.2194 C   0  0  0  0  0  0  0  0  0  0  0  0
  -26.2732   37.6309   12.6240 C   0  0  0  0  0  0  0  0  0  0  0  0
  -27.2327   38.4728   11.8363 C   0  0  0  0  0  0  0  0  0  0  0  0
  -28.5930   37.8499   11.9449 S   0  0  0  0  0  0  0  0  0  0  0  0
  -24.5331   32.8437   16.2704 C   0  0  0  0  0  0  0  0  0  0  0  0
  -25.6934   31.9263   16.5185 N   0  0  0  0  0  0  0  0  0  0  0  0
  -26.2460   31.7739   17.9048 C   0  0  0  0  0  0  0  0  0  0  0  0
  -27.4064   30.8564   18.1530 C   0  0  0  0  0  0  0  0  0  0  0  0
  -28.0143   30.0912   17.0150 O   0  0  0  0  0  0  0  0  0  0  0  0
  -27.4617   30.2435   15.6289 C   0  0  0  0  0  0  0  0  0  0  0  0
  -26.3013   31.1610   15.3806 C   0  0  0  0  0  0  0  0  0  0  0  0
 17 18  1  0  0  0
 18 19  2  0  0  0
 19 16  1  0  0  0
 16 15  1  0  0  0
 15 12  1  0  0  0
 12 13  2  0  0  0
 12 14  1  0  0  0
 14  1  1  0  0  0
  1  2  2  0  0  0
  2  3  1  0  0  0
  3  4  2  0  0  0
  4  5  1  0  0  0
  5  6  2  0  0  0
  6  7  1  0  0  0
  7  8  2  0  0  0
  8  9  1  0  0  0
  9 10  1  0  0  0
 10 11  2  0  0  0
  9 25  1  0  0  0
 25 26  1  0  0  0
 26 27  1  0  0  0
 27 28  1  0  0  0
 28 29  1  0  0  0
 29 30  1  0  0  0
 30 31  1  0  0  0
 18 20  1  0  0  0
 20 21  2  0  0  0
 21 22  1  0  0  0
 22 23  2  0  0  0
 23 24  1  0  0  0
 10  2  1  0  0  0
  8  3  1  0  0  0
 31 26  1  0  0  0
 24 20  1  0  0  0
M  CHG 1  26   1
M  END
> <minimizedAffinity>
-5.37762

$$$$



 33 37  0  0  0  0  0  0  0  0999 V2000
  -29.7712   39.7273   13.0171 C   0  0  0  0  0  0  0  0  0  0  0  0
  -28.3301   39.9959   13.3354 C   0  0  0  0  0  0  0  0  0  0  0  0
  -27.9700   40.8911   14.4838 C   0  0  0  0  0  0  0  0  0  0  0  0
  -26.5290   41.1596   14.8021 C   0  0  0  0  0  0  0  0  0  0  0  0
  -26.1687   42.0549   15.9505 C   0  0  0  0  0  0  0  0  0  0  0  0
  -24.7277   42.3235   16.2688 C   0  0  0  0  0  0  0  0  0  0  0  0
  -23.6469   41.6968   15.4387 C   0  0  0  0  0  0  0  0  0  0  0  0
  -24.0070   40.8016   14.2903 C   0  0  0  0  0  0  0  0  0  0  0  0
  -25.4481   40.5330   13.9720 C   0  0  0  0  0  0  0  0  0  0  0  0
  -25.8083   39.6377   12.8236 N   0  0  0  0  0  0  0  0  0  0  0  0
  -27.2493   39.3692   12.5053 C   0  0  0  0  0  0  0  0  0  0  0  0
  -27.6095   38.4739   11.3569 O   0  0  0  0  0  0  0  0  0  0  0  0
  -22.2058   41.9654   15.7570 O   0  0  0  0  0  0  0  0  0  0  0  0
  -21.5609   41.2974   16.9351 C   0  0  0  0  0  0  0  0  0  0  0  0
  -24.3675   43.2188   17.4172 O   0  0  0  0  0  0  0  0  0  0  0  0
  -25.4390   43.7314   18.3332 C   0  0  0  0  0  0  0  0  0  0  0  0
  -32.0804   41.5574    7.7904 C   0  0  0  0  0  0  0  0  0  0  0  0
  -31.5031   41.0999    9.0971 C   0  0  0  0  0  0  0  0  0  0  0  0
  -31.4321   42.0468   10.2582 C   0  0  0  0  0  0  0  0  0  0  0  0
  -30.8548   41.5892   11.5649 C   0  0  0  0  0  0  0  0  0  0  0  0
  -30.3485   40.1848   11.7104 N   0  0  0  0  0  0  0  0  0  0  0  0
  -30.4194   39.2378   10.5492 C   0  0  0  0  0  0  0  0  0  0  0  0
  -30.9967   39.6954    9.2425 C   0  0  0  0  0  0  0  0  0  0  0  0
  -30.6349   39.0012   14.0054 C   0  0  0  0  0  0  0  0  0  0  0  0
  -31.8516   39.5541   14.6865 N   0  0  0  0  0  0  0  0  0  0  0  0
  -32.4022   38.4893   15.5881 N   0  0  0  0  0  0  0  0  0  0  0  0
  -31.5257   37.2783   15.4643 N   0  0  0  0  0  0  0  0  0  0  0  0
  -30.4335   37.5947   14.4861 N   0  0  0  0  0  0  0  0  0  0  0  0
  -29.3330   36.6673   14.0630 C   0  0  0  0  0  0  0  0  0  0  0  0
  -28.0143   36.4901   14.7554 C   0  0  0  0  0  0  0  0  0  0  0  0
  -27.2244   35.4676   13.9934 C   0  0  0  0  0  0  0  0  0  0  0  0
  -28.0550   35.0128   12.8301 C   0  0  0  0  0  0  0  0  0  0  0  0
  -29.3582   35.7543   12.8731 C   0  0  0  0  0  0  0  0  0  0  0  0
 17 18  1  0  0  0
 18 19  1  0  0  0
 19 20  1  0  0  0
 20 21  1  0  0  0
 21 22  1  0  0  0
 22 23  1  0  0  0
  1 21  1  0  0  0
  1  2  1  0  0  0
  2  3  2  0  0  0
  3  4  1  0  0  0
  4  5  2  0  0  0
  5  6  1  0  0  0
  6  7  2  0  0  0
  7  8  1  0  0  0
  8  9  2  0  0  0
  9 10  1  0  0  0
 10 11  1  0  0  0
 11 12  2  0  0  0
  7 13  1  0  0  0
 13 14  1  0  0  0
  6 15  1  0  0  0
 15 16  1  0  0  0
  1 24  1  0  0  0
 24 25  2  0  0  0
 25 26  1  0  0  0
 26 27  2  0  0  0
 27 28  1  0  0  0
 28 29  1  0  0  0
 29 30  1  0  0  0
 30 31  1  0  0  0
 31 32  1  0  0  0
 32 33  1  0  0  0
 23 18  1  0  0  0
 11  2  1  0  0  0
  9  4  1  0  0  0
 28 24  1  0  0  0
 33 29  1  0  0  0
M  CHG 1  21   1
M  END
> <minimizedAffinity>
-6.13710

$$$$



 31 34  0  0  0  0  0  0  0  0999 V2000
  -29.5553   38.2247   14.0025 C   0  0  0  0  0  0  0  0  0  0  0  0
  -29.7954   36.7648   13.7552 C   0  0  0  0  0  0  0  0  0  0  0  0
  -29.2466   36.1131   12.5207 C   0  0  0  0  0  0  0  0  0  0  0  0
  -29.4867   34.6532   12.2734 C   0  0  0  0  0  0  0  0  0  0  0  0
  -30.2757   33.8451   13.2606 C   0  0  0  0  0  0  0  0  0  0  0  0
  -30.8244   34.4969   14.4951 N   0  0  0  0  0  0  0  0  0  0  0  0
  -30.5843   35.9568   14.7424 C   0  0  0  0  0  0  0  0  0  0  0  0
  -30.0606   39.2441   13.0249 S   0  0  0  0  0  0  0  0  0  0  0  0
  -31.4721   38.8441   13.3375 O   0  0  0  0  0  0  0  0  0  0  0  0
  -28.6491   39.6440   12.7123 O   0  0  0  0  0  0  0  0  0  0  0  0
  -31.5765   42.3020   10.0922 C   0  0  0  0  0  0  0  0  0  0  0  0
  -31.1372   40.9518    9.6082 C   0  0  0  0  0  0  0  0  0  0  0  0
  -30.6319   39.9326   10.5857 C   0  0  0  0  0  0  0  0  0  0  0  0
  -30.5659   40.2633   12.0473 C   0  0  0  0  0  0  0  0  0  0  0  0
  -31.0052   41.6134   12.5313 C   0  0  0  0  0  0  0  0  0  0  0  0
  -31.5105   42.6328   11.5537 C   0  0  0  0  0  0  0  0  0  0  0  0
  -28.8100   38.6652   15.2274 C   0  0  0  0  0  0  0  0  0  0  0  0
  -27.3664   38.2962   15.4001 N   0  0  0  0  0  0  0  0  0  0  0  0
  -26.9675   36.8535   15.4977 S   0  0  0  0  0  0  0  0  0  0  0  0
  -27.8361   36.6954   16.7103 O   0  0  0  0  0  0  0  0  0  0  0  0
  -26.0989   37.0117   14.2850 O   0  0  0  0  0  0  0  0  0  0  0  0
  -26.5686   35.4108   15.5951 C   0  0  0  0  0  0  0  0  0  0  0  0
  -25.3164   35.0267   16.3261 C   0  0  0  0  0  0  0  0  0  0  0  0
  -24.9174   33.5840   16.4236 C   0  0  0  0  0  0  0  0  0  0  0  0
  -25.7708   32.5254   15.7901 C   0  0  0  0  0  0  0  0  0  0  0  0
  -27.0230   32.9095   15.0591 C   0  0  0  0  0  0  0  0  0  0  0  0
  -27.4219   34.3523   14.9616 C   0  0  0  0  0  0  0  0  0  0  0  0
  -27.8763   31.8510   14.4256 O   0  0  0  0  0  0  0  0  0  0  0  0
  -27.4774   30.4084   14.5231 C   0  0  0  0  0  0  0  0  0  0  0  0
  -26.2251   30.0242   15.2541 C   0  0  0  0  0  0  0  0  0  0  0  0
  -25.3718   31.0827   15.8876 O   0  0  0  0  0  0  0  0  0  0  0  0
 11 12  2  0  0  0
 12 13  1  0  0  0
 13 14  2  0  0  0
 14 15  1  0  0  0
 15 16  2  0  0  0
 14  8  1  0  0  0
  8  9  2  0  0  0
  8 10  2  0  0  0
  8  1  1  0  0  0
  1 17  1  0  0  0
 17 18  1  0  0  0
 18 19  1  0  0  0
 19 20  2  0  0  0
 19 21  2  0  0  0
 19 22  1  0  0  0
 22 23  2  0  0  0
 23 24  1  0  0  0
 24 25  2  0  0  0
 25 26  1  0  0  0
 26 27  2  0  0  0
 26 28  1  0  0  0
 28 29  1  0  0  0
 29 30  1  0  0  0
 30 31  1  0  0  0
  1  2  1  0  0  0
  2  3  2  0  0  0
  3  4  1  0  0  0
  4  5  2  0  0  0
  5  6  1  0  0  0
  6  7  2  0  0  0
 16 11  1  0  0  0
 27 22  1  0  0  0
 31 25  1  0  0  0
  7  2  1  0  0  0
M  CHG 1   6   1
M  END
> <minimizedAffinity>
-6.54431

$$$$



 32 35  0  0  0  0  0  0  0  0999 V2000
  -27.3591   37.4627   14.0339 C   0  0  0  0  0  0  0  0  0  0  0  0
  -28.4307   36.4461   13.7727 C   0  0  0  0  0  0  0  0  0  0  0  0
  -28.0875   35.1510   13.0981 C   0  0  0  0  0  0  0  0  0  0  0  0
  -29.1591   34.1344   12.8369 C   0  0  0  0  0  0  0  0  0  0  0  0
  -30.5739   34.4130   13.2503 C   0  0  0  0  0  0  0  0  0  0  0  0
  -30.9171   35.7080   13.9248 N   0  0  0  0  0  0  0  0  0  0  0  0
  -29.8454   36.7246   14.1861 C   0  0  0  0  0  0  0  0  0  0  0  0
  -26.1772   37.1046   14.8855 S   0  0  0  0  0  0  0  0  0  0  0  0
  -26.9786   37.3951   16.1197 O   0  0  0  0  0  0  0  0  0  0  0  0
  -25.3759   36.8142   13.6513 O   0  0  0  0  0  0  0  0  0  0  0  0
  -21.4501   35.6726   18.2918 C   0  0  0  0  0  0  0  0  0  0  0  0
  -22.6319   36.0306   17.4402 C   0  0  0  0  0  0  0  0  0  0  0  0
  -22.8766   37.4609   17.0600 C   0  0  0  0  0  0  0  0  0  0  0  0
  -24.0584   37.8189   16.2085 C   0  0  0  0  0  0  0  0  0  0  0  0
  -24.9954   36.7466   15.7371 C   0  0  0  0  0  0  0  0  0  0  0  0
  -24.7508   35.3164   16.1172 C   0  0  0  0  0  0  0  0  0  0  0  0
  -23.5689   34.9584   16.9688 C   0  0  0  0  0  0  0  0  0  0  0  0
  -27.4693   38.8372   13.4437 C   0  0  0  0  0  0  0  0  0  0  0  0
  -26.2517   39.5148   12.8884 N   0  0  0  0  0  0  0  0  0  0  0  0
  -25.4624   40.4593   13.7456 S   0  0  0  0  0  0  0  0  0  0  0  0
  -24.1869   39.8722   13.2181 O   0  0  0  0  0  0  0  0  0  0  0  0
  -26.7380   41.0464   14.2731 O   0  0  0  0  0  0  0  0  0  0  0  0
  -24.6732   41.4039   14.6029 C   0  0  0  0  0  0  0  0  0  0  0  0
  -25.2114   42.7712   14.9042 C   0  0  0  0  0  0  0  0  0  0  0  0
  -24.4222   43.7158   15.7614 C   0  0  0  0  0  0  0  0  0  0  0  0
  -23.0947   43.2931   16.3174 C   0  0  0  0  0  0  0  0  0  0  0  0
  -22.5564   41.9258   16.0161 C   0  0  0  0  0  0  0  0  0  0  0  0
  -23.3457   40.9812   15.1588 C   0  0  0  0  0  0  0  0  0  0  0  0
  -21.2290   41.5030   16.5721 O   0  0  0  0  0  0  0  0  0  0  0  0
  -20.4398   42.4476   17.4293 C   0  0  0  0  0  0  0  0  0  0  0  0
  -20.9780   43.8149   17.7306 C   0  0  0  0  0  0  0  0  0  0  0  0
  -22.3055   44.2376   17.1746 O   0  0  0  0  0  0  0  0  0  0  0  0
 11 12  1  0  0  0
 12 13  2  0  0  0
 13 14  1  0  0  0
 14 15  2  0  0  0
 15 16  1  0  0  0
 16 17  2  0  0  0
 15  8  1  0  0  0
  8  9  2  0  0  0
  8 10  2  0  0  0
  8  1  1  0  0  0
  1 18  1  0  0  0
 18 19  1  0  0  0
 19 20  1  0  0  0
 20 21  2  0  0  0
 20 22  2  0  0  0
 20 23  1  0  0  0
 23 24  2  0  0  0
 24 25  1  0  0  0
 25 26  2  0  0  0
 26 27  1  0  0  0
 27 28  2  0  0  0
 27 29  1  0  0  0
 29 30  1  0  0  0
 30 31  1  0  0  0
 31 32  1  0  0  0
  1  2  1  0  0  0
  2  3  2  0  0  0
  3  4  1  0  0  0
  4  5  2  0  0  0
  5  6  1  0  0  0
  6  7  2  0  0  0
 17 12  1  0  0  0
 28 23  1  0  0  0
 32 26  1  0  0  0
  7  2  1  0  0  0
M  CHG 1   6   1
M  END
> <minimizedAffinity>
-6.76161

$$$$



 33 37  0  0  0  0  0  0  0  0999 V2000
  -28.5129   39.9523   13.7007 C   0  0  0  0  0  0  0  0  0  0  0  0
  -27.1910   40.4689   14.1864 C   0  0  0  0  0  0  0  0  0  0  0  0
  -26.9536   41.2226   15.4614 C   0  0  0  0  0  0  0  0  0  0  0  0
  -28.1004   41.5207   16.3811 O   0  0  0  0  0  0  0  0  0  0  0  0
  -26.1484   40.0995   13.1733 C   0  0  0  0  0  0  0  0  0  0  0  0
  -24.6852   40.4188   13.2573 O   0  0  0  0  0  0  0  0  0  0  0  0
  -26.8258   39.3545   12.0615 C   0  0  0  0  0  0  0  0  0  0  0  0
  -26.1590   38.7982   10.8384 O   0  0  0  0  0  0  0  0  0  0  0  0
  -28.2872   39.2636   12.3875 N   0  0  0  0  0  0  0  0  0  0  0  0
  -25.5692   41.6782   15.8166 C   0  0  0  0  0  0  0  0  0  0  0  0
  -25.1271   43.0702   15.4749 C   0  0  0  0  0  0  0  0  0  0  0  0
  -23.7428   43.5259   15.8301 C   0  0  0  0  0  0  0  0  0  0  0  0
  -22.8007   42.5895   16.5271 C   0  0  0  0  0  0  0  0  0  0  0  0
  -23.2429   41.1975   16.8687 C   0  0  0  0  0  0  0  0  0  0  0  0
  -24.6272   40.7418   16.5135 C   0  0  0  0  0  0  0  0  0  0  0  0
  -22.3008   40.2611   17.5656 O   0  0  0  0  0  0  0  0  0  0  0  0
  -20.9166   40.7167   17.9208 C   0  0  0  0  0  0  0  0  0  0  0  0
  -20.4744   42.1088   17.5791 C   0  0  0  0  0  0  0  0  0  0  0  0
  -21.4164   43.0451   16.8823 O   0  0  0  0  0  0  0  0  0  0  0  0
  -32.8706   42.0552   15.8148 C   0  0  0  0  0  0  0  0  0  0  0  0
  -31.8323   41.0653   15.3764 C   0  0  0  0  0  0  0  0  0  0  0  0
  -31.8779   39.5827   15.5996 C   0  0  0  0  0  0  0  0  0  0  0  0
  -30.6399   38.9853   14.9990 C   0  0  0  0  0  0  0  0  0  0  0  0
  -29.8293   40.0988   14.4047 C   0  0  0  0  0  0  0  0  0  0  0  0
  -30.5662   41.3842   14.6379 O   0  0  0  0  0  0  0  0  0  0  0  0
  -29.3383   38.6004   11.5476 C   0  0  0  0  0  0  0  0  0  0  0  0
  -30.1834   39.4203   10.6183 C   0  0  0  0  0  0  0  0  0  0  0  0
  -31.2692   40.2967   11.1684 N   0  0  0  0  0  0  0  0  0  0  0  0
  -31.0777   41.7835   11.2230 C   0  0  0  0  0  0  0  0  0  0  0  0
  -32.1636   42.6599   11.7731 C   0  0  0  0  0  0  0  0  0  0  0  0
  -33.4411   42.0496   12.2687 O   0  0  0  0  0  0  0  0  0  0  0  0
  -33.6326   40.5628   12.2142 C   0  0  0  0  0  0  0  0  0  0  0  0
  -32.5468   39.6865   11.6641 C   0  0  0  0  0  0  0  0  0  0  0  0
 20 21  1  0  0  0
 21 22  2  0  0  0
 22 23  1  0  0  0
 23 24  2  0  0  0
 24 25  1  0  0  0
  1 24  1  0  0  0
  1  2  1  0  0  0
  2  3  2  0  0  0
  3 10  1  0  0  0
 10 11  2  0  0  0
 11 12  1  0  0  0
 12 13  2  0  0  0
 13 14  1  0  0  0
 14 15  2  0  0  0
 14 16  1  0  0  0
 16 17  1  0  0  0
 17 18  1  0  0  0
 18 19  1  0  0  0
  3  4  1  0  0  0
  2  5  1  0  0  0
  5  6  2  0  0  0
  5  7  1  0  0  0
  7  8  2  0  0  0
  7  9  1  0  0  0
  9 26  1  0  0  0
 26 27  1  0  0  0
 27 28  1  0  0  0
 28 29  1  0  0  0
 29 30  1  0  0  0
 30 31  1  0  0  0
 31 32  1  0  0  0
 32 33  1  0  0  0
 25 21  1  0  0  0
  9  1  1  0  0  0
 15 10  1  0  0  0
 19 13  1  0  0  0
 33 28  1  0  0  0
M  CHG 1  28   1
M  END
> <minimizedAffinity>
-4.87182

$$$$



 33 37  0  0  0  0  0  0  0  0999 V2000
  -28.7014   37.0473   16.7284 C   0  0  0  0  0  0  0  0  0  0  0  0
  -29.2209   37.9399   15.6405 N   0  0  0  0  0  0  0  0  0  0  0  0
  -30.3149   37.4588   14.7341 C   0  0  0  0  0  0  0  0  0  0  0  0
  -30.8344   38.3513   13.6462 C   0  0  0  0  0  0  0  0  0  0  0  0
  -30.2598   39.7249   13.4646 C   0  0  0  0  0  0  0  0  0  0  0  0
  -29.1657   40.2060   14.3710 C   0  0  0  0  0  0  0  0  0  0  0  0
  -28.6462   39.3135   15.4590 C   0  0  0  0  0  0  0  0  0  0  0  0
  -30.7793   40.6174   12.3767 N   0  0  0  0  0  0  0  0  0  0  0  0
  -30.6446   40.3797   10.9018 C   0  0  0  0  0  0  0  0  0  0  0  0
  -30.0045   39.2726   10.1179 C   0  0  0  0  0  0  0  0  0  0  0  0
  -30.0266   39.3054    8.6185 C   0  0  0  0  0  0  0  0  0  0  0  0
  -30.6887   40.4454    7.9029 C   0  0  0  0  0  0  0  0  0  0  0  0
  -31.3287   41.5526    8.6868 C   0  0  0  0  0  0  0  0  0  0  0  0
  -31.3066   41.5197   10.1862 C   0  0  0  0  0  0  0  0  0  0  0  0
  -31.8506   42.4619   11.2189 N   0  0  0  0  0  0  0  0  0  0  0  0
  -31.5246   41.9043   12.5727 C   0  0  0  0  0  0  0  0  0  0  0  0
  -31.8814   42.5246   13.8910 O   0  0  0  0  0  0  0  0  0  0  0  0
  -27.4796   35.1985   15.3723 N   0  0  0  0  0  0  0  0  0  0  0  0
  -28.4451   35.5960   16.4493 C   0  0  0  0  0  0  0  0  0  0  0  0
  -29.1541   34.5421   17.2471 O   0  0  0  0  0  0  0  0  0  0  0  0
  -27.2232   33.7472   15.0931 C   0  0  0  0  0  0  0  0  0  0  0  0
  -27.6754   32.9893   13.8803 C   0  0  0  0  0  0  0  0  0  0  0  0
  -27.2012   31.5727   14.0154 C   0  0  0  0  0  0  0  0  0  0  0  0
  -26.4559   31.4551   15.3118 S   0  0  0  0  0  0  0  0  0  0  0  0
  -26.2788   30.0240   14.8987 O   0  0  0  0  0  0  0  0  0  0  0  0
  -25.6735   31.0382   16.5218 O   0  0  0  0  0  0  0  0  0  0  0  0
  -26.4694   32.7990   15.9779 C   0  0  0  0  0  0  0  0  0  0  0  0
  -25.3523   38.3602   12.9788 C   0  0  0  0  0  0  0  0  0  0  0  0
  -26.5019   37.6092   12.3752 C   0  0  0  0  0  0  0  0  0  0  0  0
  -27.2110   36.5553   13.1730 C   0  0  0  0  0  0  0  0  0  0  0  0
  -26.7705   36.2524   14.5745 C   0  0  0  0  0  0  0  0  0  0  0  0
  -25.6209   37.0034   15.1781 C   0  0  0  0  0  0  0  0  0  0  0  0
  -24.9118   38.0573   14.3803 C   0  0  0  0  0  0  0  0  0  0  0  0
 28 29  2  0  0  0
 29 30  1  0  0  0
 30 31  2  0  0  0
 31 32  1  0  0  0
 32 33  2  0  0  0
 31 18  1  0  0  0
 21 18  1  0  0  0
 21 22  1  0  0  0
 22 23  1  0  0  0
 23 24  1  0  0  0
 24 25  2  0  0  0
 24 26  2  0  0  0
 24 27  1  0  0  0
 18 19  1  0  0  0
 19 20  2  0  0  0
 19  1  1  0  0  0
  1  2  1  0  0  0
  2  3  1  0  0  0
  3  4  1  0  0  0
  4  5  1  0  0  0
  5  6  1  0  0  0
  6  7  1  0  0  0
  5  8  1  0  0  0
  8  9  1  0  0  0
  9 10  2  0  0  0
 10 11  1  0  0  0
 11 12  2  0  0  0
 12 13  1  0  0  0
 13 14  2  0  0  0
 14 15  1  0  0  0
 15 16  1  0  0  0
 16 17  2  0  0  0
 33 28  1  0  0  0
 27 21  1  0  0  0
  7  2  1  0  0  0
 16  8  1  0  0  0
 14  9  1  0  0  0
M  CHG 1   2   1
M  END
> <minimizedAffinity>
-5.52039

$$$$



 31 34  0  0  0  0  0  0  0  0999 V2000
  -25.5879   39.0731   13.3338 C   0  0  0  0  0  0  0  0  0  0  0  0
  -25.5093   37.6531   13.8103 O   0  0  0  0  0  0  0  0  0  0  0  0
  -26.5103   39.4365   12.2080 N   0  0  0  0  0  0  0  0  0  0  0  0
  -24.0366   42.2183   14.9971 N   0  0  0  0  0  0  0  0  0  0  0  0
  -25.2039   41.4988   14.3891 C   0  0  0  0  0  0  0  0  0  0  0  0
  -24.7442   40.1299   13.9829 C   0  0  0  0  0  0  0  0  0  0  0  0
  -23.2928   40.0035   14.3397 N   0  0  0  0  0  0  0  0  0  0  0  0
  -22.8555   41.2942   14.9665 N   0  0  0  0  0  0  0  0  0  0  0  0
  -24.0483   43.6165   15.5401 C   0  0  0  0  0  0  0  0  0  0  0  0
  -21.8129   44.4224   18.7188 C   0  0  0  0  0  0  0  0  0  0  0  0
  -22.2144   44.1670   17.2963 C   0  0  0  0  0  0  0  0  0  0  0  0
  -23.6468   43.8719   16.9627 C   0  0  0  0  0  0  0  0  0  0  0  0
  -24.6776   43.8322   18.0516 C   0  0  0  0  0  0  0  0  0  0  0  0
  -24.2761   44.0876   19.4741 C   0  0  0  0  0  0  0  0  0  0  0  0
  -22.8438   44.3827   19.8077 C   0  0  0  0  0  0  0  0  0  0  0  0
  -22.4423   44.6381   21.2303 F   0  0  0  0  0  0  0  0  0  0  0  0
  -26.1100   43.5372   17.7180 Cl  0  0  0  0  0  0  0  0  0  0  0  0
  -27.3539   38.3797   11.5589 C   0  0  0  0  0  0  0  0  0  0  0  0
  -28.7874   38.2091   11.9666 C   0  0  0  0  0  0  0  0  0  0  0  0
  -29.2195   36.9664   12.6870 C   0  0  0  0  0  0  0  0  0  0  0  0
  -30.1196   37.0672   13.8827 C   0  0  0  0  0  0  0  0  0  0  0  0
  -30.5516   35.8245   14.6031 C   0  0  0  0  0  0  0  0  0  0  0  0
  -30.0836   34.4810   14.1278 N   0  0  0  0  0  0  0  0  0  0  0  0
  -29.1835   34.3801   12.9321 C   0  0  0  0  0  0  0  0  0  0  0  0
  -28.7514   35.6229   12.2117 C   0  0  0  0  0  0  0  0  0  0  0  0
  -29.7887   39.2813   11.6538 N   0  0  0  0  0  0  0  0  0  0  0  0
  -30.5358   39.2536   10.3535 C   0  0  0  0  0  0  0  0  0  0  0  0
  -31.5370   40.3259   10.0408 C   0  0  0  0  0  0  0  0  0  0  0  0
  -31.7912   41.4258   11.0285 O   0  0  0  0  0  0  0  0  0  0  0  0
  -31.0441   41.4535   12.3289 C   0  0  0  0  0  0  0  0  0  0  0  0
  -30.0429   40.3813   12.6416 C   0  0  0  0  0  0  0  0  0  0  0  0
 10 11  2  0  0  0
 11 12  1  0  0  0
 12 13  2  0  0  0
 13 14  1  0  0  0
 14 15  2  0  0  0
 15 16  1  0  0  0
 13 17  1  0  0  0
 12  9  1  0  0  0
  9  4  1  0  0  0
  4  5  1  0  0  0
  5  6  2  0  0  0
  6  7  1  0  0  0
  7  8  2  0  0  0
  6  1  1  0  0  0
  1  2  2  0  0  0
  1  3  1  0  0  0
  3 18  1  0  0  0
 19 18  1  0  0  0
 19 20  1  0  0  0
 20 21  2  0  0  0
 21 22  1  0  0  0
 22 23  2  0  0  0
 23 24  1  0  0  0
 24 25  2  0  0  0
 19 26  1  0  0  0
 26 27  1  0  0  0
 27 28  1  0  0  0
 28 29  1  0  0  0
 29 30  1  0  0  0
 30 31  1  0  0  0
 15 10  1  0  0  0
  8  4  1  0  0  0
 25 20  1  0  0  0
 31 26  1  0  0  0
M  CHG 1  26   1
M  END
> <minimizedAffinity>
-6.21225

$$$$



 30 32  0  0  0  0  0  0  0  0999 V2000
  -26.3372   30.0240   15.0270 C   0  0  0  0  0  0  0  0  0  0  0  0
  -26.8412   31.4076   14.7411 C   0  0  0  0  0  0  0  0  0  0  0  0
  -27.4630   31.7196   13.4123 C   0  0  0  0  0  0  0  0  0  0  0  0
  -27.9670   33.1032   13.1263 C   0  0  0  0  0  0  0  0  0  0  0  0
  -27.8491   34.1747   14.1693 C   0  0  0  0  0  0  0  0  0  0  0  0
  -27.2273   33.8628   15.4981 C   0  0  0  0  0  0  0  0  0  0  0  0
  -26.7233   32.4792   15.7840 C   0  0  0  0  0  0  0  0  0  0  0  0
  -28.3531   35.5583   13.8834 N   0  0  0  0  0  0  0  0  0  0  0  0
  -27.5682   36.6696   13.2518 C   0  0  0  0  0  0  0  0  0  0  0  0
  -26.1414   36.5925   12.7953 O   0  0  0  0  0  0  0  0  0  0  0  0
  -28.4605   37.8716   13.1569 C   0  0  0  0  0  0  0  0  0  0  0  0
  -29.7969   37.5032   13.7299 C   0  0  0  0  0  0  0  0  0  0  0  0
  -29.7305   36.0735   14.1788 S   0  0  0  0  0  0  0  0  0  0  0  0
  -31.1564   36.2997   14.5859 O   0  0  0  0  0  0  0  0  0  0  0  0
  -29.9622   34.6911   14.7129 O   0  0  0  0  0  0  0  0  0  0  0  0
  -26.1014   32.1672   17.1130 S   0  0  0  0  0  0  0  0  0  0  0  0
  -24.7375   32.3696   16.5223 O   0  0  0  0  0  0  0  0  0  0  0  0
  -27.4652   31.9649   17.7037 O   0  0  0  0  0  0  0  0  0  0  0  0
  -25.4796   31.8553   18.4419 N   0  0  0  0  0  0  0  0  0  0  0  0
  -24.7539   32.9268   19.2004 C   0  0  0  0  0  0  0  0  0  0  0  0
  -25.4394   34.2261   19.5039 C   0  0  0  0  0  0  0  0  0  0  0  0
  -25.5526   35.2801   18.4426 C   0  0  0  0  0  0  0  0  0  0  0  0
  -24.3970   35.5467   17.5241 C   0  0  0  0  0  0  0  0  0  0  0  0
  -24.5103   36.6007   16.4629 C   0  0  0  0  0  0  0  0  0  0  0  0
  -25.7791   37.3880   16.3201 C   0  0  0  0  0  0  0  0  0  0  0  0
  -26.9346   37.1213   17.2386 C   0  0  0  0  0  0  0  0  0  0  0  0
  -26.8214   36.0673   18.2999 C   0  0  0  0  0  0  0  0  0  0  0  0
  -26.0115   34.4713   20.8686 N   0  0  0  0  0  0  0  0  0  0  0  0
  -27.2317   33.7224   21.3159 C   0  0  0  0  0  0  0  0  0  0  0  0
  -25.3635   35.4656   21.7860 C   0  0  0  0  0  0  0  0  0  0  0  0
  1  2  1  0  0  0
  2  3  2  0  0  0
  3  4  1  0  0  0
  4  5  2  0  0  0
  5  6  1  0  0  0
  6  7  2  0  0  0
  7 16  1  0  0  0
 16 17  2  0  0  0
 16 18  2  0  0  0
 16 19  1  0  0  0
 19 20  1  0  0  0
 21 20  1  0  0  0
 21 22  1  0  0  0
 22 23  2  0  0  0
 23 24  1  0  0  0
 24 25  2  0  0  0
 25 26  1  0  0  0
 26 27  2  0  0  0
 21 28  1  0  0  0
 28 29  1  0  0  0
 28 30  1  0  0  0
  5  8  1  0  0  0
  8  9  1  0  0  0
  9 10  2  0  0  0
  9 11  1  0  0  0
 11 12  1  0  0  0
 12 13  1  0  0  0
 13 14  2  0  0  0
 13 15  2  0  0  0
  7  2  1  0  0  0
 27 22  1  0  0  0
 13  8  1  0  0  0
M  CHG 1  28   1
M  END
> <minimizedAffinity>
-6.08817

$$$$



 31 34  0  0  0  0  0  0  0  0999 V2000
  -23.9251   34.5333   18.0491 C   0  0  0  0  0  0  0  0  0  0  0  0
  -24.2455   33.7760   16.7946 C   0  0  0  0  0  0  0  0  0  0  0  0
  -25.6118   33.1769   16.9510 C   0  0  0  0  0  0  0  0  0  0  0  0
  -26.1357   33.5639   18.3022 C   0  0  0  0  0  0  0  0  0  0  0  0
  -25.0932   34.4022   18.9808 S   0  0  0  0  0  0  0  0  0  0  0  0
  -21.2537   37.4667   18.1416 C   0  0  0  0  0  0  0  0  0  0  0  0
  -21.1149   38.8888   17.6850 C   0  0  0  0  0  0  0  0  0  0  0  0
  -19.8486   39.6445   17.9596 O   0  0  0  0  0  0  0  0  0  0  0  0
  -22.2425   39.5551   16.9539 N   0  0  0  0  0  0  0  0  0  0  0  0
  -23.5088   38.7994   16.6793 C   0  0  0  0  0  0  0  0  0  0  0  0
  -23.6475   37.3774   17.1359 C   0  0  0  0  0  0  0  0  0  0  0  0
  -22.5200   36.7111   17.8671 N   0  0  0  0  0  0  0  0  0  0  0  0
  -22.6588   35.2889   18.3237 C   0  0  0  0  0  0  0  0  0  0  0  0
  -21.5312   34.6226   19.0548 O   0  0  0  0  0  0  0  0  0  0  0  0
  -20.1261   36.8004   18.8728 C   0  0  0  0  0  0  0  0  0  0  0  0
  -19.8220   37.1827   20.2910 C   0  0  0  0  0  0  0  0  0  0  0  0
  -20.8680   37.8602   21.1259 O   0  0  0  0  0  0  0  0  0  0  0  0
  -18.0721   35.4705   21.1606 C   0  0  0  0  0  0  0  0  0  0  0  0
  -18.4720   36.8877   20.8743 O   0  0  0  0  0  0  0  0  0  0  0  0
  -27.4681   33.1801   18.8743 N   0  0  0  0  0  0  0  0  0  0  0  0
  -27.6945   31.7853   19.3775 C   0  0  0  0  0  0  0  0  0  0  0  0
  -29.0270   31.4014   19.9496 C   0  0  0  0  0  0  0  0  0  0  0  0
  -30.1330   32.4124   20.0185 O   0  0  0  0  0  0  0  0  0  0  0  0
  -29.9066   33.8072   19.5152 C   0  0  0  0  0  0  0  0  0  0  0  0
  -28.5741   34.1910   18.9432 C   0  0  0  0  0  0  0  0  0  0  0  0
  -26.3283   32.3380   15.9347 C   0  0  0  0  0  0  0  0  0  0  0  0
  -26.0666   30.8628   15.8608 C   0  0  0  0  0  0  0  0  0  0  0  0
  -26.7831   30.0240   14.8445 C   0  0  0  0  0  0  0  0  0  0  0  0
  -27.7613   30.6603   13.9020 C   0  0  0  0  0  0  0  0  0  0  0  0
  -28.0229   32.1354   13.9759 N   0  0  0  0  0  0  0  0  0  0  0  0
  -27.3064   32.9743   14.9922 C   0  0  0  0  0  0  0  0  0  0  0  0
 18 19  1  0  0  0
 19 16  1  0  0  0
 16 17  2  0  0  0
 16 15  1  0  0  0
  6 15  1  0  0  0
  6  7  1  0  0  0
  7  8  2  0  0  0
  7  9  1  0  0  0
  9 10  1  0  0  0
 10 11  1  0  0  0
 11 12  1  0  0  0
 12 13  1  0  0  0
 13 14  2  0  0  0
 13  1  1  0  0  0
  1  2  2  0  0  0
  2  3  1  0  0  0
  3  4  2  0  0  0
  4  5  1  0  0  0
  4 20  1  0  0  0
 20 21  1  0  0  0
 21 22  1  0  0  0
 22 23  1  0  0  0
 23 24  1  0  0  0
 24 25  1  0  0  0
  3 26  1  0  0  0
 26 27  2  0  0  0
 27 28  1  0  0  0
 28 29  2  0  0  0
 29 30  1  0  0  0
 30 31  2  0  0  0
 12  6  1  0  0  0
  5  1  1  0  0  0
 25 20  1  0  0  0
 31 26  1  0  0  0
M  CHG 1  30   1
M  END
> <minimizedAffinity>
-4.52047

$$$$



 34 38  0  0  0  0  0  0  0  0999 V2000
  -26.1094   38.9265   14.0069 C   0  0  0  0  0  0  0  0  0  0  0  0
  -26.4434   32.8532   16.4054 C   0  0  0  0  0  0  0  0  0  0  0  0
  -25.9653   33.9529   15.5043 C   0  0  0  0  0  0  0  0  0  0  0  0
  -26.5155   35.3400   15.6568 C   0  0  0  0  0  0  0  0  0  0  0  0
  -26.0373   36.4397   14.7556 C   0  0  0  0  0  0  0  0  0  0  0  0
  -26.5875   37.8268   14.9080 C   0  0  0  0  0  0  0  0  0  0  0  0
  -27.6158   38.1142   15.9617 C   0  0  0  0  0  0  0  0  0  0  0  0
  -28.1659   39.5014   16.1142 O   0  0  0  0  0  0  0  0  0  0  0  0
  -28.0938   37.0146   16.8628 N   0  0  0  0  0  0  0  0  0  0  0  0
  -27.5437   35.6274   16.7104 C   0  0  0  0  0  0  0  0  0  0  0  0
  -28.0217   34.5278   17.6115 C   0  0  0  0  0  0  0  0  0  0  0  0
  -27.4716   33.1406   17.4590 C   0  0  0  0  0  0  0  0  0  0  0  0
  -26.1123   30.7084   14.9771 C   0  0  0  0  0  0  0  0  0  0  0  0
  -25.8932   31.4661   16.2530 O   0  0  0  0  0  0  0  0  0  0  0  0
  -27.9497   32.0409   18.3603 O   0  0  0  0  0  0  0  0  0  0  0  0
  -28.7651   32.3686   19.5759 C   0  0  0  0  0  0  0  0  0  0  0  0
  -25.2641   40.0354   14.5601 N   0  0  0  0  0  0  0  0  0  0  0  0
  -23.8944   39.7390   15.0949 C   0  0  0  0  0  0  0  0  0  0  0  0
  -23.0491   40.8478   15.6480 C   0  0  0  0  0  0  0  0  0  0  0  0
  -23.5736   42.2530   15.6663 C   0  0  0  0  0  0  0  0  0  0  0  0
  -24.9432   42.5494   15.1315 C   0  0  0  0  0  0  0  0  0  0  0  0
  -25.7885   41.4406   14.5784 C   0  0  0  0  0  0  0  0  0  0  0  0
  -26.4767   38.9175   12.5526 C   0  0  0  0  0  0  0  0  0  0  0  0
  -25.5535   39.2144   11.4082 N   0  0  0  0  0  0  0  0  0  0  0  0
  -26.3378   39.0903   10.1356 N   0  0  0  0  0  0  0  0  0  0  0  0
  -27.7458   38.7166   10.4935 N   0  0  0  0  0  0  0  0  0  0  0  0
  -27.8315   38.6098   11.9872 N   0  0  0  0  0  0  0  0  0  0  0  0
  -29.0571   38.2572   12.7769 C   0  0  0  0  0  0  0  0  0  0  0  0
  -29.3515   36.8234   13.1046 C   0  0  0  0  0  0  0  0  0  0  0  0
  -28.6718   35.7250   12.3421 C   0  0  0  0  0  0  0  0  0  0  0  0
  -28.9662   34.2911   12.6698 C   0  0  0  0  0  0  0  0  0  0  0  0
  -29.9404   33.9556   13.7599 C   0  0  0  0  0  0  0  0  0  0  0  0
  -30.6202   35.0541   14.5224 C   0  0  0  0  0  0  0  0  0  0  0  0
  -30.3257   36.4879   14.1947 C   0  0  0  0  0  0  0  0  0  0  0  0
 13 14  1  0  0  0
 14  2  1  0  0  0
  2  3  2  0  0  0
  3  4  1  0  0  0
  4  5  1  0  0  0
  5  6  2  0  0  0
  6  7  1  0  0  0
  7  8  2  0  0  0
  7  9  1  0  0  0
  9 10  1  0  0  0
 10 11  1  0  0  0
 11 12  2  0  0  0
 12 15  1  0  0  0
 15 16  1  0  0  0
  6  1  1  0  0  0
  1 23  1  0  0  0
 23 24  2  0  0  0
 24 25  1  0  0  0
 25 26  2  0  0  0
 26 27  1  0  0  0
 27 28  1  0  0  0
 28 29  1  0  0  0
 29 30  2  0  0  0
 30 31  1  0  0  0
 31 32  2  0  0  0
 32 33  1  0  0  0
 33 34  2  0  0  0
  1 17  1  0  0  0
 17 18  1  0  0  0
 18 19  1  0  0  0
 19 20  1  0  0  0
 20 21  1  0  0  0
 21 22  1  0  0  0
 12  2  1  0  0  0
 10  4  2  0  0  0
 27 23  1  0  0  0
 34 29  1  0  0  0
 22 17  1  0  0  0
M  CHG 1  17   1
M  END
> <minimizedAffinity>
-5.84686

$$$$



 33 36  0  0  0  0  0  0  0  0999 V2000
  -24.4387   34.0590   16.9278 C   0  0  0  0  0  0  0  0  0  0  0  0
  -25.7182   34.7958   16.6636 C   0  0  0  0  0  0  0  0  0  0  0  0
  -26.9417   34.2300   16.0057 C   0  0  0  0  0  0  0  0  0  0  0  0
  -27.9787   35.3123   15.9463 N   0  0  0  0  0  0  0  0  0  0  0  0
  -27.3959   36.5471   16.5676 C   0  0  0  0  0  0  0  0  0  0  0  0
  -28.0885   37.8689   16.7189 O   0  0  0  0  0  0  0  0  0  0  0  0
  -25.9989   36.2279   17.0108 C   0  0  0  0  0  0  0  0  0  0  0  0
  -25.0493   37.1744   17.6833 O   0  0  0  0  0  0  0  0  0  0  0  0
  -24.3035   32.6213   16.5220 O   0  0  0  0  0  0  0  0  0  0  0  0
  -21.0054   36.1617   18.9382 C   0  0  0  0  0  0  0  0  0  0  0  0
  -22.0332   35.4458   19.7634 C   0  0  0  0  0  0  0  0  0  0  0  0
  -23.1776   34.7449   19.0933 C   0  0  0  0  0  0  0  0  0  0  0  0
  -23.2942   34.7599   17.5980 C   0  0  0  0  0  0  0  0  0  0  0  0
  -22.2664   35.4758   16.7727 C   0  0  0  0  0  0  0  0  0  0  0  0
  -21.1220   36.1767   17.4428 C   0  0  0  0  0  0  0  0  0  0  0  0
  -20.0942   36.8926   16.6175 F   0  0  0  0  0  0  0  0  0  0  0  0
  -20.1032   38.1264   20.3790 C   0  0  0  0  0  0  0  0  0  0  0  0
  -19.8610   36.8626   19.6083 O   0  0  0  0  0  0  0  0  0  0  0  0
  -27.1005   32.8280   15.4966 C   0  0  0  0  0  0  0  0  0  0  0  0
  -27.1000   32.5616   14.0204 C   0  0  0  0  0  0  0  0  0  0  0  0
  -27.2588   31.1597   13.5113 C   0  0  0  0  0  0  0  0  0  0  0  0
  -27.4182   30.0241   14.4783 C   0  0  0  0  0  0  0  0  0  0  0  0
  -27.4187   30.2905   15.9545 C   0  0  0  0  0  0  0  0  0  0  0  0
  -27.2599   31.6924   16.4636 N   0  0  0  0  0  0  0  0  0  0  0  0
  -29.3563   35.1827   15.3674 C   0  0  0  0  0  0  0  0  0  0  0  0
  -29.6532   35.7382   14.0062 C   0  0  0  0  0  0  0  0  0  0  0  0
  -28.5887   35.7425   12.9494 C   0  0  0  0  0  0  0  0  0  0  0  0
  -27.7095   36.9454   12.7753 N   0  0  0  0  0  0  0  0  0  0  0  0
  -28.3034   38.2513   12.3371 C   0  0  0  0  0  0  0  0  0  0  0  0
  -27.4243   39.4542   12.1630 C   0  0  0  0  0  0  0  0  0  0  0  0
  -25.9512   39.3511   12.4271 O   0  0  0  0  0  0  0  0  0  0  0  0
  -25.3574   38.0452   12.8653 C   0  0  0  0  0  0  0  0  0  0  0  0
  -26.2366   36.8423   13.0394 C   0  0  0  0  0  0  0  0  0  0  0  0
 17 18  1  0  0  0
 18 10  1  0  0  0
 10 11  2  0  0  0
 11 12  1  0  0  0
 12 13  2  0  0  0
 13 14  1  0  0  0
 14 15  2  0  0  0
 15 16  1  0  0  0
 13  1  1  0  0  0
  1  2  2  0  0  0
  2  3  1  0  0  0
  3  4  1  0  0  0
  4  5  1  0  0  0
  5  6  2  0  0  0
  5  7  1  0  0  0
  7  8  2  0  0  0
  4 25  1  0  0  0
 25 26  1  0  0  0
 26 27  1  0  0  0
 27 28  1  0  0  0
 28 29  1  0  0  0
 29 30  1  0  0  0
 30 31  1  0  0  0
 31 32  1  0  0  0
 32 33  1  0  0  0
  3 19  1  0  0  0
 19 20  2  0  0  0
 20 21  1  0  0  0
 21 22  2  0  0  0
 22 23  1  0  0  0
 23 24  2  0  0  0
  1  9  1  0  0  0
 15 10  1  0  0  0
  7  2  1  0  0  0
 33 28  1  0  0  0
 24 19  1  0  0  0
M  CHG 1  28   1
M  END
> <minimizedAffinity>
-5.57604

$$$$



 33 36  0  0  0  0  0  0  0  0999 V2000
  -26.3680   40.5977   14.2970 C   0  0  0  0  0  0  0  0  0  0  0  0
  -27.5275   40.2083   15.1652 C   0  0  0  0  0  0  0  0  0  0  0  0
  -28.8703   39.7422   14.6860 C   0  0  0  0  0  0  0  0  0  0  0  0
  -29.7206   39.4624   15.8897 N   0  0  0  0  0  0  0  0  0  0  0  0
  -28.9033   39.7556   17.1128 C   0  0  0  0  0  0  0  0  0  0  0  0
  -29.3609   39.6129   18.5341 O   0  0  0  0  0  0  0  0  0  0  0  0
  -27.5479   40.2166   16.6650 C   0  0  0  0  0  0  0  0  0  0  0  0
  -26.4123   40.6158   17.5600 O   0  0  0  0  0  0  0  0  0  0  0  0
  -26.4960   40.5386   12.8037 O   0  0  0  0  0  0  0  0  0  0  0  0
  -24.0386   40.0359   15.3013 C   0  0  0  0  0  0  0  0  0  0  0  0
  -22.7511   40.4845   15.9264 C   0  0  0  0  0  0  0  0  0  0  0  0
  -22.5052   41.9435   16.1725 C   0  0  0  0  0  0  0  0  0  0  0  0
  -23.5469   42.9540   15.7934 C   0  0  0  0  0  0  0  0  0  0  0  0
  -24.8345   42.5055   15.1682 C   0  0  0  0  0  0  0  0  0  0  0  0
  -25.0804   41.0464   14.9222 C   0  0  0  0  0  0  0  0  0  0  0  0
  -23.3010   44.4132   16.0395 F   0  0  0  0  0  0  0  0  0  0  0  0
  -24.5772   37.6609   16.2065 C   0  0  0  0  0  0  0  0  0  0  0  0
  -24.2846   38.5767   15.0552 O   0  0  0  0  0  0  0  0  0  0  0  0
  -29.2894   39.5837   13.2545 C   0  0  0  0  0  0  0  0  0  0  0  0
  -28.8299   38.3934   12.4659 C   0  0  0  0  0  0  0  0  0  0  0  0
  -29.2489   38.2349   11.0343 C   0  0  0  0  0  0  0  0  0  0  0  0
  -30.1275   39.2668   10.3914 N   0  0  0  0  0  0  0  0  0  0  0  0
  -30.5870   40.4571   11.1801 C   0  0  0  0  0  0  0  0  0  0  0  0
  -30.1680   40.6156   12.6115 C   0  0  0  0  0  0  0  0  0  0  0  0
  -31.1391   38.9750   15.8731 C   0  0  0  0  0  0  0  0  0  0  0  0
  -31.4456   37.5476   16.2176 C   0  0  0  0  0  0  0  0  0  0  0  0
  -30.3275   36.5823   16.4782 C   0  0  0  0  0  0  0  0  0  0  0  0
  -29.5900   35.9609   15.3292 N   0  0  0  0  0  0  0  0  0  0  0  0
  -28.0907   35.9921   15.2957 C   0  0  0  0  0  0  0  0  0  0  0  0
  -27.3532   35.3707   14.1467 C   0  0  0  0  0  0  0  0  0  0  0  0
  -28.1150   34.7182   13.0315 O   0  0  0  0  0  0  0  0  0  0  0  0
  -29.6143   34.6870   13.0651 C   0  0  0  0  0  0  0  0  0  0  0  0
  -30.3518   35.3084   14.2140 C   0  0  0  0  0  0  0  0  0  0  0  0
 17 18  1  0  0  0
 18 10  1  0  0  0
 10 11  2  0  0  0
 11 12  1  0  0  0
 12 13  2  0  0  0
 13 14  1  0  0  0
 14 15  2  0  0  0
 15  1  1  0  0  0
  1  2  2  0  0  0
  2  3  1  0  0  0
  3  4  1  0  0  0
  4  5  1  0  0  0
  5  6  2  0  0  0
  5  7  1  0  0  0
  7  8  2  0  0  0
  4 25  1  0  0  0
 25 26  1  0  0  0
 26 27  1  0  0  0
 27 28  1  0  0  0
 28 29  1  0  0  0
 29 30  1  0  0  0
 30 31  1  0  0  0
 31 32  1  0  0  0
 32 33  1  0  0  0
  3 19  1  0  0  0
 19 20  2  0  0  0
 20 21  1  0  0  0
 21 22  2  0  0  0
 22 23  1  0  0  0
 23 24  2  0  0  0
  1  9  1  0  0  0
 13 16  1  0  0  0
 15 10  1  0  0  0
  7  2  1  0  0  0
 33 28  1  0  0  0
 24 19  1  0  0  0
M  CHG 1  28   1
M  END
> <minimizedAffinity>
-4.76578

$$$$



 31 35  0  0  0  0  0  0  0  0999 V2000
  -28.3473   38.6308   12.2689 C   0  0  0  0  0  0  0  0  0  0  0  0
  -27.9437   37.1864   12.2977 C   0  0  0  0  0  0  0  0  0  0  0  0
  -26.6898   36.7722   13.0091 C   0  0  0  0  0  0  0  0  0  0  0  0
  -25.8395   37.8023   13.6917 C   0  0  0  0  0  0  0  0  0  0  0  0
  -26.2431   39.2466   13.6629 N   0  0  0  0  0  0  0  0  0  0  0  0
  -27.4970   39.6609   12.9515 C   0  0  0  0  0  0  0  0  0  0  0  0
  -30.9742   39.3836    7.8493 C   0  0  0  0  0  0  0  0  0  0  0  0
  -30.9146   39.4215    9.3476 C   0  0  0  0  0  0  0  0  0  0  0  0
  -32.1089   39.8738   10.1345 C   0  0  0  0  0  0  0  0  0  0  0  0
  -32.0493   39.9117   11.6329 C   0  0  0  0  0  0  0  0  0  0  0  0
  -30.7954   39.4974   12.3443 N   0  0  0  0  0  0  0  0  0  0  0  0
  -29.6012   39.0451   11.5574 C   0  0  0  0  0  0  0  0  0  0  0  0
  -29.6608   39.0072   10.0591 N   0  0  0  0  0  0  0  0  0  0  0  0
  -33.2436   40.3640   12.4197 N   0  0  0  0  0  0  0  0  0  0  0  0
  -34.4974   40.7783   11.7083 C   0  0  0  0  0  0  0  0  0  0  0  0
  -34.5570   40.7403   10.2100 C   0  0  0  0  0  0  0  0  0  0  0  0
  -33.3628   40.2881    9.4231 C   0  0  0  0  0  0  0  0  0  0  0  0
  -33.1840   40.4019   13.9181 C   0  0  0  0  0  0  0  0  0  0  0  0
  -25.3929   40.2767   14.3455 S   0  0  0  0  0  0  0  0  0  0  0  0
  -26.2550   40.1775   15.5690 O   0  0  0  0  0  0  0  0  0  0  0  0
  -24.5308   40.3759   13.1221 O   0  0  0  0  0  0  0  0  0  0  0  0
  -24.5426   41.3068   15.0282 C   0  0  0  0  0  0  0  0  0  0  0  0
  -25.0158   42.7271   15.1224 C   0  0  0  0  0  0  0  0  0  0  0  0
  -24.1655   43.7572   15.8050 C   0  0  0  0  0  0  0  0  0  0  0  0
  -22.8421   43.3670   16.3934 C   0  0  0  0  0  0  0  0  0  0  0  0
  -22.3689   41.9467   16.2992 C   0  0  0  0  0  0  0  0  0  0  0  0
  -23.2192   40.9166   15.6166 C   0  0  0  0  0  0  0  0  0  0  0  0
  -21.0292   41.8592   16.9680 O   0  0  0  0  0  0  0  0  0  0  0  0
  -20.6743   43.2254   17.4755 C   0  0  0  0  0  0  0  0  0  0  0  0
  -19.4193   43.5949   18.2094 O   0  0  0  0  0  0  0  0  0  0  0  0
  -21.7947   44.1572   17.1204 N   0  0  0  0  0  0  0  0  0  0  0  0
  7  8  1  0  0  0
  8  9  2  0  0  0
  9 10  1  0  0  0
 10 11  2  0  0  0
 11 12  1  0  0  0
 12 13  2  0  0  0
  1 12  1  0  0  0
  1  2  1  0  0  0
  2  3  1  0  0  0
  3  4  1  0  0  0
  4  5  1  0  0  0
  5  6  1  0  0  0
  5 19  1  0  0  0
 19 20  2  0  0  0
 19 21  2  0  0  0
 19 22  1  0  0  0
 22 23  2  0  0  0
 23 24  1  0  0  0
 24 25  2  0  0  0
 25 26  1  0  0  0
 26 27  2  0  0  0
 26 28  1  0  0  0
 28 29  1  0  0  0
 29 30  2  0  0  0
 29 31  1  0  0  0
 10 14  1  0  0  0
 14 15  1  0  0  0
 15 16  1  0  0  0
 16 17  1  0  0  0
 14 18  1  0  0  0
 13  8  1  0  0  0
 17  9  1  0  0  0
  6  1  1  0  0  0
 27 22  1  0  0  0
 31 25  1  0  0  0
M  CHG 1  13   1
M  END
> <minimizedAffinity>
-5.88492

$$$$



 33 37  0  0  0  0  0  0  0  0999 V2000
  -29.9752   39.8240   13.6530 C   0  0  0  0  0  0  0  0  0  0  0  0
  -28.6361   40.2646   14.1658 C   0  0  0  0  0  0  0  0  0  0  0  0
  -27.3860   39.8624   13.4410 C   0  0  0  0  0  0  0  0  0  0  0  0
  -26.0470   40.3030   13.9538 C   0  0  0  0  0  0  0  0  0  0  0  0
  -24.7969   39.9008   13.2289 C   0  0  0  0  0  0  0  0  0  0  0  0
  -23.4579   40.3414   13.7417 C   0  0  0  0  0  0  0  0  0  0  0  0
  -23.3691   41.1842   14.9794 C   0  0  0  0  0  0  0  0  0  0  0  0
  -24.6192   41.5863   15.7043 C   0  0  0  0  0  0  0  0  0  0  0  0
  -25.9581   41.1457   15.1915 C   0  0  0  0  0  0  0  0  0  0  0  0
  -27.2083   41.5479   15.9163 N   0  0  0  0  0  0  0  0  0  0  0  0
  -28.5473   41.1073   15.4035 C   0  0  0  0  0  0  0  0  0  0  0  0
  -29.7974   41.5095   16.1284 O   0  0  0  0  0  0  0  0  0  0  0  0
  -22.0300   41.6248   15.4922 O   0  0  0  0  0  0  0  0  0  0  0  0
  -21.6897   41.4553   16.9432 C   0  0  0  0  0  0  0  0  0  0  0  0
  -31.7685   41.4503    8.1631 C   0  0  0  0  0  0  0  0  0  0  0  0
  -31.3202   41.0437    9.5356 N   0  0  0  0  0  0  0  0  0  0  0  0
  -30.7599   39.6715    9.7658 C   0  0  0  0  0  0  0  0  0  0  0  0
  -30.3116   39.2649   11.1382 C   0  0  0  0  0  0  0  0  0  0  0  0
  -30.4235   40.2306   12.2806 N   0  0  0  0  0  0  0  0  0  0  0  0
  -30.9838   41.6029   12.0504 C   0  0  0  0  0  0  0  0  0  0  0  0
  -31.4321   42.0095   10.6780 C   0  0  0  0  0  0  0  0  0  0  0  0
  -30.8658   38.9768   14.5127 C   0  0  0  0  0  0  0  0  0  0  0  0
  -32.1411   39.4199   15.1665 N   0  0  0  0  0  0  0  0  0  0  0  0
  -32.7010   38.2548   15.9274 N   0  0  0  0  0  0  0  0  0  0  0  0
  -31.7718   37.0916   15.7438 N   0  0  0  0  0  0  0  0  0  0  0  0
  -30.6376   37.5379   14.8695 N   0  0  0  0  0  0  0  0  0  0  0  0
  -29.4787   36.6934   14.4293 C   0  0  0  0  0  0  0  0  0  0  0  0
  -28.1215   36.9106   15.0300 C   0  0  0  0  0  0  0  0  0  0  0  0
  -27.9907   37.5834   16.3642 C   0  0  0  0  0  0  0  0  0  0  0  0
  -26.6334   37.8005   16.9648 C   0  0  0  0  0  0  0  0  0  0  0  0
  -25.4070   37.3447   16.2312 C   0  0  0  0  0  0  0  0  0  0  0  0
  -25.5378   36.6719   14.8971 C   0  0  0  0  0  0  0  0  0  0  0  0
  -26.8950   36.4548   14.2964 C   0  0  0  0  0  0  0  0  0  0  0  0
 15 16  1  0  0  0
 16 17  1  0  0  0
 17 18  1  0  0  0
 18 19  1  0  0  0
 19 20  1  0  0  0
 20 21  1  0  0  0
  1 19  1  0  0  0
  1  2  1  0  0  0
  2  3  2  0  0  0
  3  4  1  0  0  0
  4  5  2  0  0  0
  5  6  1  0  0  0
  6  7  2  0  0  0
  7  8  1  0  0  0
  8  9  2  0  0  0
  9 10  1  0  0  0
 10 11  1  0  0  0
 11 12  2  0  0  0
  7 13  1  0  0  0
 13 14  1  0  0  0
  1 22  1  0  0  0
 22 23  2  0  0  0
 23 24  1  0  0  0
 24 25  2  0  0  0
 25 26  1  0  0  0
 26 27  1  0  0  0
 27 28  1  0  0  0
 28 29  2  0  0  0
 29 30  1  0  0  0
 30 31  2  0  0  0
 31 32  1  0  0  0
 32 33  2  0  0  0
 21 16  1  0  0  0
 11  2  1  0  0  0
  9  4  1  0  0  0
 26 22  1  0  0  0
 33 28  1  0  0  0
M  CHG 1  16   1
M  END
> <minimizedAffinity>
-5.36090

$$$$



 33 37  0  0  0  0  0  0  0  0999 V2000
  -28.2116   38.5344   14.2536 C   0  0  0  0  0  0  0  0  0  0  0  0
  -27.9672   39.0656   12.8723 C   0  0  0  0  0  0  0  0  0  0  0  0
  -29.2914   39.1738   12.1762 C   0  0  0  0  0  0  0  0  0  0  0  0
  -30.3544   38.7095   13.1273 C   0  0  0  0  0  0  0  0  0  0  0  0
  -31.8262   38.6506   12.8442 O   0  0  0  0  0  0  0  0  0  0  0  0
  -29.6870   38.3143   14.4113 N   0  0  0  0  0  0  0  0  0  0  0  0
  -29.5138   39.6608   10.7750 O   0  0  0  0  0  0  0  0  0  0  0  0
  -24.1259   36.4154   16.8414 C   0  0  0  0  0  0  0  0  0  0  0  0
  -25.2866   37.2958   16.4840 C   0  0  0  0  0  0  0  0  0  0  0  0
  -25.8201   38.4294   17.3089 C   0  0  0  0  0  0  0  0  0  0  0  0
  -26.9808   39.0314   16.5738 C   0  0  0  0  0  0  0  0  0  0  0  0
  -27.1646   38.2698   15.2946 C   0  0  0  0  0  0  0  0  0  0  0  0
  -26.1175   37.1972   15.2391 O   0  0  0  0  0  0  0  0  0  0  0  0
  -26.6328   39.4254   12.2894 C   0  0  0  0  0  0  0  0  0  0  0  0
  -26.3873   39.2596   10.8189 O   0  0  0  0  0  0  0  0  0  0  0  0
  -25.5438   39.9511   13.1769 C   0  0  0  0  0  0  0  0  0  0  0  0
  -24.2589   39.1901   13.3187 C   0  0  0  0  0  0  0  0  0  0  0  0
  -23.1699   39.7158   14.2063 C   0  0  0  0  0  0  0  0  0  0  0  0
  -23.3657   41.0025   14.9520 C   0  0  0  0  0  0  0  0  0  0  0  0
  -24.6506   41.7635   14.8102 C   0  0  0  0  0  0  0  0  0  0  0  0
  -25.7396   41.2378   13.9227 C   0  0  0  0  0  0  0  0  0  0  0  0
  -24.5572   42.9938   15.6632 C   0  0  0  0  0  0  0  0  0  0  0  0
  -23.2146   42.9932   16.3322 C   0  0  0  0  0  0  0  0  0  0  0  0
  -22.4783   41.7625   15.8926 O   0  0  0  0  0  0  0  0  0  0  0  0
  -22.6989   44.0396   17.2752 C   0  0  0  0  0  0  0  0  0  0  0  0
  -30.3743   37.7910   15.6375 C   0  0  0  0  0  0  0  0  0  0  0  0
  -30.5335   36.3125   15.8347 C   0  0  0  0  0  0  0  0  0  0  0  0
  -29.3770   35.3927   15.5771 N   0  0  0  0  0  0  0  0  0  0  0  0
  -29.1510   34.8391   14.2015 C   0  0  0  0  0  0  0  0  0  0  0  0
  -27.9945   33.9193   13.9439 C   0  0  0  0  0  0  0  0  0  0  0  0
  -27.0639   33.5531   15.0619 O   0  0  0  0  0  0  0  0  0  0  0  0
  -27.2899   34.1067   16.4376 C   0  0  0  0  0  0  0  0  0  0  0  0
  -28.4464   35.0265   16.6952 C   0  0  0  0  0  0  0  0  0  0  0  0
  8  9  1  0  0  0
  9 10  2  0  0  0
 10 11  1  0  0  0
 11 12  2  0  0  0
 12 13  1  0  0  0
  1 12  1  0  0  0
  1  2  1  0  0  0
  2  3  2  0  0  0
  3  4  1  0  0  0
  4  5  2  0  0  0
  4  6  1  0  0  0
  6 26  1  0  0  0
 26 27  1  0  0  0
 27 28  1  0  0  0
 28 29  1  0  0  0
 29 30  1  0  0  0
 30 31  1  0  0  0
 31 32  1  0  0  0
 32 33  1  0  0  0
  3  7  1  0  0  0
  2 14  1  0  0  0
 14 15  2  0  0  0
 14 16  1  0  0  0
 16 17  2  0  0  0
 17 18  1  0  0  0
 18 19  2  0  0  0
 19 20  1  0  0  0
 20 21  2  0  0  0
 20 22  1  0  0  0
 22 23  1  0  0  0
 23 24  1  0  0  0
 23 25  1  0  0  0
 13  9  1  0  0  0
  6  1  1  0  0  0
 33 28  1  0  0  0
 21 16  1  0  0  0
 24 19  1  0  0  0
M  CHG 1  28   1
M  END
> <minimizedAffinity>
-5.41908

$$$$



 34 38  0  0  0  0  0  0  0  0999 V2000
  -26.2897   41.2234   15.0136 N   0  0  0  0  0  0  0  0  0  0  0  0
  -27.6087   41.2598   15.7269 C   0  0  0  0  0  0  0  0  0  0  0  0
  -28.6264   40.5869   14.8542 C   0  0  0  0  0  0  0  0  0  0  0  0
  -27.9363   40.1346   13.6015 C   0  0  0  0  0  0  0  0  0  0  0  0
  -26.4921   40.5280   13.7000 N   0  0  0  0  0  0  0  0  0  0  0  0
  -30.0790   40.3992   15.1775 C   0  0  0  0  0  0  0  0  0  0  0  0
  -31.0929   41.3824   14.6722 O   0  0  0  0  0  0  0  0  0  0  0  0
  -30.5178   39.2283   16.0060 N   0  0  0  0  0  0  0  0  0  0  0  0
  -29.5039   38.2451   16.5113 C   0  0  0  0  0  0  0  0  0  0  0  0
  -29.9426   37.0742   17.3398 C   0  0  0  0  0  0  0  0  0  0  0  0
  -31.3953   36.8865   17.6630 N   0  0  0  0  0  0  0  0  0  0  0  0
  -32.4092   37.8696   17.1579 C   0  0  0  0  0  0  0  0  0  0  0  0
  -31.9704   39.0406   16.3293 C   0  0  0  0  0  0  0  0  0  0  0  0
  -31.8341   35.7156   18.4916 C   0  0  0  0  0  0  0  0  0  0  0  0
  -30.8151   34.8797   19.2078 C   0  0  0  0  0  0  0  0  0  0  0  0
  -31.2538   33.7088   20.0364 C   0  0  0  0  0  0  0  0  0  0  0  0
  -32.7115   33.3737   20.1487 C   0  0  0  0  0  0  0  0  0  0  0  0
  -33.7306   34.2096   19.4325 C   0  0  0  0  0  0  0  0  0  0  0  0
  -33.2918   35.3805   18.6040 C   0  0  0  0  0  0  0  0  0  0  0  0
  -33.1503   32.2029   20.9773 N   0  0  0  0  0  0  0  0  0  0  0  0
  -34.5895   32.0639   21.3766 O   0  0  0  0  0  0  0  0  0  0  0  0
  -32.1499   31.1710   21.4065 O   0  0  0  0  0  0  0  0  0  0  0  0
  -22.4069   42.9051   16.5454 C   0  0  0  0  0  0  0  0  0  0  0  0
  -22.6031   41.4200   16.4697 C   0  0  0  0  0  0  0  0  0  0  0  0
  -23.8973   40.8594   15.9592 C   0  0  0  0  0  0  0  0  0  0  0  0
  -24.9954   41.7840   15.5242 C   0  0  0  0  0  0  0  0  0  0  0  0
  -24.7993   43.2691   15.5998 C   0  0  0  0  0  0  0  0  0  0  0  0
  -23.5051   43.8297   16.1104 C   0  0  0  0  0  0  0  0  0  0  0  0
  -27.8651   41.8631   17.0760 C   0  0  0  0  0  0  0  0  0  0  0  0
  -27.6235   41.0558   18.3169 C   0  0  0  0  0  0  0  0  0  0  0  0
  -27.8799   41.6592   19.6660 C   0  0  0  0  0  0  0  0  0  0  0  0
  -28.3779   43.0699   19.7743 N   0  0  0  0  0  0  0  0  0  0  0  0
  -28.6196   43.8773   18.5335 C   0  0  0  0  0  0  0  0  0  0  0  0
  -28.3632   43.2740   17.1843 C   0  0  0  0  0  0  0  0  0  0  0  0
 23 24  2  0  0  0
 24 25  1  0  0  0
 25 26  2  0  0  0
 26 27  1  0  0  0
 27 28  2  0  0  0
 26  1  1  0  0  0
  1  2  1  0  0  0
  2  3  2  0  0  0
  3  4  1  0  0  0
  4  5  2  0  0  0
  3  6  1  0  0  0
  6  7  2  0  0  0
  6  8  1  0  0  0
  8  9  1  0  0  0
  9 10  1  0  0  0
 10 11  1  0  0  0
 11 12  1  0  0  0
 12 13  1  0  0  0
 11 14  1  0  0  0
 14 15  2  0  0  0
 15 16  1  0  0  0
 16 17  2  0  0  0
 17 18  1  0  0  0
 18 19  2  0  0  0
 17 20  1  0  0  0
 20 21  2  0  0  0
 20 22  1  0  0  0
  2 29  1  0  0  0
 29 30  1  0  0  0
 30 31  1  0  0  0
 31 32  1  0  0  0
 32 33  1  0  0  0
 33 34  1  0  0  0
 28 23  1  0  0  0
  5  1  1  0  0  0
 13  8  1  0  0  0
 19 14  1  0  0  0
 34 29  1  0  0  0
M  CHG 1  20   1
M  CHG 1  22  -1
M  CHG 1  32   1
M  END
> <minimizedAffinity>
-5.45805

$$$$



 32 36  0  0  0  0  0  0  0  0999 V2000
  -28.3701   38.6499   12.9763 N   0  0  0  0  0  0  0  0  0  0  0  0
  -29.1008   39.7769   12.3085 C   0  0  0  0  0  0  0  0  0  0  0  0
  -30.5729   39.9547   12.5345 C   0  0  0  0  0  0  0  0  0  0  0  0
  -31.3145   39.0055   13.4284 N   0  0  0  0  0  0  0  0  0  0  0  0
  -30.5838   37.8785   14.0963 C   0  0  0  0  0  0  0  0  0  0  0  0
  -31.3254   36.9293   14.9902 O   0  0  0  0  0  0  0  0  0  0  0  0
  -29.1117   37.7007   13.8702 C   0  0  0  0  0  0  0  0  0  0  0  0
  -28.3811   36.5736   14.5381 C   0  0  0  0  0  0  0  0  0  0  0  0
  -27.6318   36.6545   15.8350 C   0  0  0  0  0  0  0  0  0  0  0  0
  -27.0592   35.2988   16.1248 N   0  0  0  0  0  0  0  0  0  0  0  0
  -27.4545   34.3800   15.0070 N   0  0  0  0  0  0  0  0  0  0  0  0
  -28.2716   35.1679   14.0264 C   0  0  0  0  0  0  0  0  0  0  0  0
  -28.8734   34.6424   12.7569 C   0  0  0  0  0  0  0  0  0  0  0  0
  -27.4815   37.8766   16.6917 C   0  0  0  0  0  0  0  0  0  0  0  0
  -27.0959   32.9282   14.8904 C   0  0  0  0  0  0  0  0  0  0  0  0
  -27.7741   32.0682   13.8653 C   0  0  0  0  0  0  0  0  0  0  0  0
  -27.4154   30.6164   13.7487 C   0  0  0  0  0  0  0  0  0  0  0  0
  -26.3787   30.0245   14.6570 C   0  0  0  0  0  0  0  0  0  0  0  0
  -25.7006   30.8845   15.6819 C   0  0  0  0  0  0  0  0  0  0  0  0
  -26.0592   32.3363   15.7986 C   0  0  0  0  0  0  0  0  0  0  0  0
  -26.8980   38.4721   12.7503 C   0  0  0  0  0  0  0  0  0  0  0  0
  -21.0719   41.3700   17.1415 C   0  0  0  0  0  0  0  0  0  0  0  0
  -22.3104   41.2949   16.2984 C   0  0  0  0  0  0  0  0  0  0  0  0
  -23.0835   42.5423   15.9886 C   0  0  0  0  0  0  0  0  0  0  0  0
  -24.3220   42.4672   15.1456 C   0  0  0  0  0  0  0  0  0  0  0  0
  -25.0951   43.7147   14.8358 O   0  0  0  0  0  0  0  0  0  0  0  0
  -24.7872   41.1446   14.6125 N   0  0  0  0  0  0  0  0  0  0  0  0
  -24.0141   39.8971   14.9223 C   0  0  0  0  0  0  0  0  0  0  0  0
  -22.7757   39.9722   15.7653 N   0  0  0  0  0  0  0  0  0  0  0  0
  -24.7106   38.7441   14.2624 S   0  0  0  0  0  0  0  0  0  0  0  0
  -25.9143   39.2791   13.5448 C   0  0  0  0  0  0  0  0  0  0  0  0
  -25.9617   40.7626   13.7611 N   0  0  0  0  0  0  0  0  0  0  0  0
 22 23  1  0  0  0
 23 24  2  0  0  0
 24 25  1  0  0  0
 25 26  2  0  0  0
 25 27  1  0  0  0
 27 28  1  0  0  0
 28 29  2  0  0  0
 28 30  1  0  0  0
 30 31  1  0  0  0
 31 32  2  0  0  0
 31 21  1  0  0  0
 21  1  1  0  0  0
  1  2  1  0  0  0
  2  3  1  0  0  0
  3  4  1  0  0  0
  4  5  1  0  0  0
  5  6  2  0  0  0
  5  7  1  0  0  0
  7  8  1  0  0  0
  8  9  1  0  0  0
  9 10  2  0  0  0
 10 11  1  0  0  0
 11 12  1  0  0  0
 12 13  1  0  0  0
 11 15  1  0  0  0
 15 16  2  0  0  0
 16 17  1  0  0  0
 17 18  2  0  0  0
 18 19  1  0  0  0
 19 20  2  0  0  0
  9 14  1  0  0  0
 29 23  1  0  0  0
 32 27  1  0  0  0
  7  1  1  0  0  0
 12  8  2  0  0  0
 20 15  1  0  0  0
M  CHG 1   1   1
M  END
> <minimizedAffinity>
-6.64372

$$$$



 28 30  0  0  0  0  0  0  0  0999 V2000
  -25.9469   39.0307   13.6393 S   0  0  0  0  0  0  0  0  0  0  0  0
  -26.3497   39.9002   12.4854 O   0  0  0  0  0  0  0  0  0  0  0  0
  -25.5441   38.1612   14.7933 O   0  0  0  0  0  0  0  0  0  0  0  0
  -26.3194   42.2093   15.9863 C   0  0  0  0  0  0  0  0  0  0  0  0
  -26.6681   40.9882   15.1880 C   0  0  0  0  0  0  0  0  0  0  0  0
  -25.5981   40.2519   14.4376 C   0  0  0  0  0  0  0  0  0  0  0  0
  -24.1795   40.7366   14.4856 C   0  0  0  0  0  0  0  0  0  0  0  0
  -23.8308   41.9577   15.2839 C   0  0  0  0  0  0  0  0  0  0  0  0
  -24.9007   42.6940   16.0342 C   0  0  0  0  0  0  0  0  0  0  0  0
  -23.1095   40.0003   13.7352 Br  0  0  0  0  0  0  0  0  0  0  0  0
  -28.4077   42.1835   17.5316 C   0  0  0  0  0  0  0  0  0  0  0  0
  -27.3893   42.9456   16.7366 O   0  0  0  0  0  0  0  0  0  0  0  0
  -24.5519   43.9152   16.8325 O   0  0  0  0  0  0  0  0  0  0  0  0
  -24.2863   43.7985   18.3042 C   0  0  0  0  0  0  0  0  0  0  0  0
  -26.2957   37.8097   12.8410 N   0  0  0  0  0  0  0  0  0  0  0  0
  -27.7292   37.5106   12.5154 C   0  0  0  0  0  0  0  0  0  0  0  0
  -28.3602   36.2409   13.0047 C   0  0  0  0  0  0  0  0  0  0  0  0
  -29.8454   36.0552   12.9065 C   0  0  0  0  0  0  0  0  0  0  0  0
  -30.4765   34.7854   13.3958 C   0  0  0  0  0  0  0  0  0  0  0  0
  -29.6224   33.7013   13.9833 N   0  0  0  0  0  0  0  0  0  0  0  0
  -28.1372   33.8870   14.0816 C   0  0  0  0  0  0  0  0  0  0  0  0
  -27.5061   35.1568   13.5923 C   0  0  0  0  0  0  0  0  0  0  0  0
  -27.2830   32.8029   14.6691 N   0  0  0  0  0  0  0  0  0  0  0  0
  -27.2638   31.4405   14.0420 C   0  0  0  0  0  0  0  0  0  0  0  0
  -26.4097   30.3564   14.6296 C   0  0  0  0  0  0  0  0  0  0  0  0
  -25.5747   30.6348   15.8442 O   0  0  0  0  0  0  0  0  0  0  0  0
  -25.5939   31.9973   16.4713 C   0  0  0  0  0  0  0  0  0  0  0  0
  -26.4481   33.0814   15.8838 C   0  0  0  0  0  0  0  0  0  0  0  0
 11 12  1  0  0  0
 12  4  1  0  0  0
  4  5  2  0  0  0
  5  6  1  0  0  0
  6  7  2  0  0  0
  7  8  1  0  0  0
  8  9  2  0  0  0
  9 13  1  0  0  0
 13 14  1  0  0  0
  7 10  1  0  0  0
  6  1  1  0  0  0
  1  2  2  0  0  0
  1  3  2  0  0  0
  1 15  1  0  0  0
 15 16  1  0  0  0
 16 17  1  0  0  0
 17 18  2  0  0  0
 18 19  1  0  0  0
 19 20  2  0  0  0
 20 21  1  0  0  0
 21 22  2  0  0  0
 21 23  1  0  0  0
 23 24  1  0  0  0
 24 25  1  0  0  0
 25 26  1  0  0  0
 26 27  1  0  0  0
 27 28  1  0  0  0
  9  4  1  0  0  0
 22 17  1  0  0  0
 28 23  1  0  0  0
M  CHG 1  20   1
M  END
> <minimizedAffinity>
-5.89188

$$$$



 32 34  0  0  0  0  0  0  0  0999 V2000
  -20.0946   38.1641   17.5750 N   0  0  0  0  0  0  0  0  0  0  0  0
  -20.7404   37.1971   18.5225 C   0  0  0  0  0  0  0  0  0  0  0  0
  -20.8813   37.5498   19.9737 O   0  0  0  0  0  0  0  0  0  0  0  0
  -21.7575   40.6371   17.2297 C   0  0  0  0  0  0  0  0  0  0  0  0
  -20.4210   40.7202   17.9059 C   0  0  0  0  0  0  0  0  0  0  0  0
  -19.9161   42.0399   18.4095 C   0  0  0  0  0  0  0  0  0  0  0  0
  -18.5798   42.1230   19.0857 C   0  0  0  0  0  0  0  0  0  0  0  0
  -17.7483   40.8864   19.2583 C   0  0  0  0  0  0  0  0  0  0  0  0
  -18.2533   39.5668   18.7548 C   0  0  0  0  0  0  0  0  0  0  0  0
  -19.5897   39.4837   18.0785 C   0  0  0  0  0  0  0  0  0  0  0  0
  -16.4120   40.9696   19.9345 S   0  0  0  0  0  0  0  0  0  0  0  0
  -15.7524   41.1847   18.6046 O   0  0  0  0  0  0  0  0  0  0  0  0
  -17.0715   40.7544   21.2644 O   0  0  0  0  0  0  0  0  0  0  0  0
  -15.0757   41.0527   20.6107 N   0  0  0  0  0  0  0  0  0  0  0  0
  -14.1015   39.9187   20.4886 C   0  0  0  0  0  0  0  0  0  0  0  0
  -14.7135   42.2699   21.4090 C   0  0  0  0  0  0  0  0  0  0  0  0
  -21.2454   35.8775   18.0190 C   0  0  0  0  0  0  0  0  0  0  0  0
  -20.3797   34.6565   18.1165 C   0  0  0  0  0  0  0  0  0  0  0  0
  -22.6162   35.7789   17.4178 N   0  0  0  0  0  0  0  0  0  0  0  0
  -23.3468   37.0233   17.0084 C   0  0  0  0  0  0  0  0  0  0  0  0
  -24.7175   36.9247   16.4072 C   0  0  0  0  0  0  0  0  0  0  0  0
  -25.3576   35.5817   16.2155 C   0  0  0  0  0  0  0  0  0  0  0  0
  -26.7283   35.4831   15.6143 C   0  0  0  0  0  0  0  0  0  0  0  0
  -27.3684   34.1401   15.4226 C   0  0  0  0  0  0  0  0  0  0  0  0
  -26.6377   32.8957   15.8321 C   0  0  0  0  0  0  0  0  0  0  0  0
  -25.2670   32.9943   16.4332 C   0  0  0  0  0  0  0  0  0  0  0  0
  -24.6269   34.3373   16.6249 C   0  0  0  0  0  0  0  0  0  0  0  0
  -23.2562   34.4359   17.2261 C   0  0  0  0  0  0  0  0  0  0  0  0
  -27.2777   31.5527   15.6403 O   0  0  0  0  0  0  0  0  0  0  0  0
  -26.5425   30.4691   14.9089 C   0  0  0  0  0  0  0  0  0  0  0  0
  -28.7391   34.0415   14.8215 O   0  0  0  0  0  0  0  0  0  0  0  0
  -28.9131   34.1216   13.3337 C   0  0  0  0  0  0  0  0  0  0  0  0
  4  5  1  0  0  0
  5  6  2  0  0  0
  6  7  1  0  0  0
  7  8  2  0  0  0
  8  9  1  0  0  0
  9 10  2  0  0  0
 10  1  1  0  0  0
  1  2  1  0  0  0
  2  3  2  0  0  0
  2 17  1  0  0  0
 17 18  1  0  0  0
 17 19  1  0  0  0
 19 20  1  0  0  0
 20 21  1  0  0  0
 21 22  1  0  0  0
 22 23  2  0  0  0
 23 24  1  0  0  0
 24 25  2  0  0  0
 25 26  1  0  0  0
 26 27  2  0  0  0
 27 28  1  0  0  0
 25 29  1  0  0  0
 29 30  1  0  0  0
 24 31  1  0  0  0
 31 32  1  0  0  0
  8 11  1  0  0  0
 11 12  2  0  0  0
 11 13  2  0  0  0
 11 14  1  0  0  0
 14 15  1  0  0  0
 14 16  1  0  0  0
 10  5  1  0  0  0
 28 19  1  0  0  0
 27 22  1  0  0  0
M  CHG 1  19   1
M  END
> <minimizedAffinity>
-5.63982

$$$$



 32 36  0  0  0  0  0  0  0  0999 V2000
  -26.8362   35.3022   16.0625 N   0  0  0  0  0  0  0  0  0  0  0  0
  -25.7419   36.1000   15.4177 C   0  0  0  0  0  0  0  0  0  0  0  0
  -25.9897   37.5229   15.0129 C   0  0  0  0  0  0  0  0  0  0  0  0
  -27.3321   38.1480   15.2528 N   0  0  0  0  0  0  0  0  0  0  0  0
  -28.4265   37.3501   15.8975 C   0  0  0  0  0  0  0  0  0  0  0  0
  -28.1785   35.9272   16.3024 C   0  0  0  0  0  0  0  0  0  0  0  0
  -26.5883   33.8792   16.4673 S   0  0  0  0  0  0  0  0  0  0  0  0
  -25.1216   34.0621   16.2119 O   0  0  0  0  0  0  0  0  0  0  0  0
  -28.0550   33.6964   16.7227 O   0  0  0  0  0  0  0  0  0  0  0  0
  -26.8391   31.2631   14.5328 C   0  0  0  0  0  0  0  0  0  0  0  0
  -26.4557   31.2539   15.9829 C   0  0  0  0  0  0  0  0  0  0  0  0
  -26.3404   32.4564   16.8721 C   0  0  0  0  0  0  0  0  0  0  0  0
  -25.9337   31.9861   18.2372 C   0  0  0  0  0  0  0  0  0  0  0  0
  -25.7976   30.4930   18.1917 O   0  0  0  0  0  0  0  0  0  0  0  0
  -26.1202   30.0404   16.7984 N   0  0  0  0  0  0  0  0  0  0  0  0
  -25.7034   32.8562   19.4372 C   0  0  0  0  0  0  0  0  0  0  0  0
  -27.5800   39.5709   14.8480 C   0  0  0  0  0  0  0  0  0  0  0  0
  -28.5485   39.8788   13.7448 C   0  0  0  0  0  0  0  0  0  0  0  0
  -29.6266   40.9001   13.9566 N   0  0  0  0  0  0  0  0  0  0  0  0
  -30.5952   41.2081   12.8534 C   0  0  0  0  0  0  0  0  0  0  0  0
  -30.4857   40.4948   11.5384 C   0  0  0  0  0  0  0  0  0  0  0  0
  -31.5756   41.0043   10.6426 C   0  0  0  0  0  0  0  0  0  0  0  0
  -32.3588   42.0324   11.4040 C   0  0  0  0  0  0  0  0  0  0  0  0
  -31.7528   42.1584   12.7703 S   0  0  0  0  0  0  0  0  0  0  0  0
  -29.4076   39.4736   11.3265 C   0  0  0  0  0  0  0  0  0  0  0  0
  -29.2982   38.7604   10.0115 O   0  0  0  0  0  0  0  0  0  0  0  0
  -28.4390   39.1656   12.4298 N   0  0  0  0  0  0  0  0  0  0  0  0
  -31.8366   40.5631    9.2329 C   0  0  0  0  0  0  0  0  0  0  0  0
  -31.1008   41.0306    8.0122 C   0  0  0  0  0  0  0  0  0  0  0  0
  -31.6887   40.3333    6.8213 C   0  0  0  0  0  0  0  0  0  0  0  0
  -32.7879   39.4350    7.3060 C   0  0  0  0  0  0  0  0  0  0  0  0
  -32.8793   39.5770    8.7965 S   0  0  0  0  0  0  0  0  0  0  0  0
 10 11  1  0  0  0
 11 12  1  0  0  0
 12 13  2  0  0  0
 13 14  1  0  0  0
 14 15  1  0  0  0
 13 16  1  0  0  0
 12  7  1  0  0  0
  7  8  2  0  0  0
  7  9  2  0  0  0
  7  1  1  0  0  0
  1  2  1  0  0  0
  2  3  1  0  0  0
  3  4  1  0  0  0
  4  5  1  0  0  0
  5  6  1  0  0  0
  4 17  1  0  0  0
 17 18  1  0  0  0
 18 19  1  0  0  0
 19 20  1  0  0  0
 20 21  2  0  0  0
 21 22  1  0  0  0
 22 23  2  0  0  0
 23 24  1  0  0  0
 22 28  1  0  0  0
 28 29  2  0  0  0
 29 30  1  0  0  0
 30 31  2  0  0  0
 31 32  1  0  0  0
 21 25  1  0  0  0
 25 26  2  0  0  0
 25 27  1  0  0  0
 15 11  2  0  0  0
  6  1  1  0  0  0
 27 18  2  0  0  0
 24 20  1  0  0  0
 32 28  1  0  0  0
M  CHG 1   4   1
M  END
> <minimizedAffinity>
-5.36117

$$$$



 32 35  0  0  0  0  0  0  0  0999 V2000
  -23.4744   38.4172   15.6310 N   0  0  0  0  0  0  0  0  0  0  0  0
  -24.5963   37.4232   15.5754 C   0  0  0  0  0  0  0  0  0  0  0  0
  -24.6244   36.2695   16.5336 C   0  0  0  0  0  0  0  0  0  0  0  0
  -23.5306   36.1098   17.5475 N   0  0  0  0  0  0  0  0  0  0  0  0
  -22.4086   37.1038   17.6031 C   0  0  0  0  0  0  0  0  0  0  0  0
  -22.3804   38.2575   16.6450 C   0  0  0  0  0  0  0  0  0  0  0  0
  -23.5587   34.9561   18.5056 C   0  0  0  0  0  0  0  0  0  0  0  0
  -22.4648   34.7963   19.5195 O   0  0  0  0  0  0  0  0  0  0  0  0
  -24.6807   33.9621   18.4500 C   0  0  0  0  0  0  0  0  0  0  0  0
  -25.9042   33.9641   19.3178 C   0  0  0  0  0  0  0  0  0  0  0  0
  -26.7558   32.7947   18.9208 C   0  0  0  0  0  0  0  0  0  0  0  0
  -26.0587   32.0701   17.8078 C   0  0  0  0  0  0  0  0  0  0  0  0
  -24.7761   32.7916   17.5168 N   0  0  0  0  0  0  0  0  0  0  0  0
  -28.0733   32.4165   19.5301 S   0  0  0  0  0  0  0  0  0  0  0  0
  -28.3493   31.5077   18.3691 O   0  0  0  0  0  0  0  0  0  0  0  0
  -27.7973   33.3253   20.6911 O   0  0  0  0  0  0  0  0  0  0  0  0
  -29.3908   32.0383   20.1393 N   0  0  0  0  0  0  0  0  0  0  0  0
  -29.6295   30.6292   20.5948 C   0  0  0  0  0  0  0  0  0  0  0  0
  -30.9470   30.2509   21.2041 C   0  0  0  0  0  0  0  0  0  0  0  0
  -32.0258   31.2817   21.3578 O   0  0  0  0  0  0  0  0  0  0  0  0
  -31.7870   32.6908   20.9022 C   0  0  0  0  0  0  0  0  0  0  0  0
  -30.4696   33.0691   20.2930 C   0  0  0  0  0  0  0  0  0  0  0  0
  -23.4462   39.5709   14.6729 C   0  0  0  0  0  0  0  0  0  0  0  0
  -21.8148   43.6258   17.4830 C   0  0  0  0  0  0  0  0  0  0  0  0
  -22.8351   42.9965   16.5813 C   0  0  0  0  0  0  0  0  0  0  0  0
  -24.0599   43.7653   16.1830 C   0  0  0  0  0  0  0  0  0  0  0  0
  -25.0801   43.1360   15.2813 C   0  0  0  0  0  0  0  0  0  0  0  0
  -24.8756   41.7379   14.7779 C   0  0  0  0  0  0  0  0  0  0  0  0
  -23.6508   40.9691   15.1762 C   0  0  0  0  0  0  0  0  0  0  0  0
  -22.6305   41.5984   16.0779 C   0  0  0  0  0  0  0  0  0  0  0  0
  -25.8959   41.1087   13.8762 O   0  0  0  0  0  0  0  0  0  0  0  0
  -27.1288   40.4843   14.4593 C   0  0  0  0  0  0  0  0  0  0  0  0
 24 25  1  0  0  0
 25 26  2  0  0  0
 26 27  1  0  0  0
 27 28  2  0  0  0
 28 29  1  0  0  0
 29 30  2  0  0  0
 29 23  1  0  0  0
 23  1  1  0  0  0
  1  2  1  0  0  0
  2  3  1  0  0  0
  3  4  1  0  0  0
  4  5  1  0  0  0
  5  6  1  0  0  0
  4  7  1  0  0  0
  7  8  2  0  0  0
  7  9  1  0  0  0
  9 10  2  0  0  0
 10 11  1  0  0  0
 11 12  2  0  0  0
 12 13  1  0  0  0
 11 14  1  0  0  0
 14 15  2  0  0  0
 14 16  2  0  0  0
 14 17  1  0  0  0
 17 18  1  0  0  0
 18 19  1  0  0  0
 19 20  1  0  0  0
 20 21  1  0  0  0
 21 22  1  0  0  0
 28 31  1  0  0  0
 31 32  1  0  0  0
 30 25  1  0  0  0
  6  1  1  0  0  0
 13  9  1  0  0  0
 22 17  1  0  0  0
M  CHG 1   1   1
M  END
> <minimizedAffinity>
-5.04477

$$$$



 31 35  0  0  0  0  0  0  0  0999 V2000
  -27.9441   38.3551   14.5858 C   0  0  0  0  0  0  0  0  0  0  0  0
  -27.8399   39.1402   13.3119 C   0  0  0  0  0  0  0  0  0  0  0  0
  -29.2293   39.3799   12.8001 C   0  0  0  0  0  0  0  0  0  0  0  0
  -30.1923   38.7429   13.7577 C   0  0  0  0  0  0  0  0  0  0  0  0
  -31.6872   38.7398   13.6335 O   0  0  0  0  0  0  0  0  0  0  0  0
  -29.3981   38.1096   14.8614 N   0  0  0  0  0  0  0  0  0  0  0  0
  -29.5921   40.1255   11.5502 O   0  0  0  0  0  0  0  0  0  0  0  0
  -24.8383   36.6918   16.2147 C   0  0  0  0  0  0  0  0  0  0  0  0
  -25.8122   36.8205   15.0811 C   0  0  0  0  0  0  0  0  0  0  0  0
  -26.7960   37.8961   15.4351 C   0  0  0  0  0  0  0  0  0  0  0  0
  -26.4301   38.4322   16.7874 S   0  0  0  0  0  0  0  0  0  0  0  0
  -25.2202   37.6879   17.2693 C   0  0  0  0  0  0  0  0  0  0  0  0
  -26.5693   39.6041   12.6636 C   0  0  0  0  0  0  0  0  0  0  0  0
  -26.3662   39.4132   11.1896 O   0  0  0  0  0  0  0  0  0  0  0  0
  -25.5017   40.2589   13.4892 C   0  0  0  0  0  0  0  0  0  0  0  0
  -24.1213   39.6734   13.5312 C   0  0  0  0  0  0  0  0  0  0  0  0
  -23.0538   40.3282   14.3568 C   0  0  0  0  0  0  0  0  0  0  0  0
  -23.3666   41.5684   15.1403 C   0  0  0  0  0  0  0  0  0  0  0  0
  -24.7470   42.1539   15.0982 C   0  0  0  0  0  0  0  0  0  0  0  0
  -25.8146   41.4992   14.2727 C   0  0  0  0  0  0  0  0  0  0  0  0
  -24.7592   43.3754   15.9688 O   0  0  0  0  0  0  0  0  0  0  0  0
  -23.3862   43.5449   16.5489 C   0  0  0  0  0  0  0  0  0  0  0  0
  -22.5256   42.4281   16.0369 O   0  0  0  0  0  0  0  0  0  0  0  0
  -29.9591   37.3620   16.0345 C   0  0  0  0  0  0  0  0  0  0  0  0
  -30.1912   35.8831   15.9400 C   0  0  0  0  0  0  0  0  0  0  0  0
  -29.0350   34.9556   15.7100 N   0  0  0  0  0  0  0  0  0  0  0  0
  -28.1585   34.5506   16.8579 C   0  0  0  0  0  0  0  0  0  0  0  0
  -27.0022   33.6231   16.6277 C   0  0  0  0  0  0  0  0  0  0  0  0
  -26.7226   33.1007   15.2497 O   0  0  0  0  0  0  0  0  0  0  0  0
  -27.5991   33.5058   14.1019 C   0  0  0  0  0  0  0  0  0  0  0  0
  -28.7553   34.4332   14.3320 C   0  0  0  0  0  0  0  0  0  0  0  0
  8  9  1  0  0  0
  9 10  2  0  0  0
 10 11  1  0  0  0
 11 12  1  0  0  0
  1 10  1  0  0  0
  1  2  1  0  0  0
  2  3  2  0  0  0
  3  4  1  0  0  0
  4  5  2  0  0  0
  4  6  1  0  0  0
  6 24  1  0  0  0
 24 25  1  0  0  0
 25 26  1  0  0  0
 26 27  1  0  0  0
 27 28  1  0  0  0
 28 29  1  0  0  0
 29 30  1  0  0  0
 30 31  1  0  0  0
  3  7  1  0  0  0
  2 13  1  0  0  0
 13 14  2  0  0  0
 13 15  1  0  0  0
 15 16  2  0  0  0
 16 17  1  0  0  0
 17 18  2  0  0  0
 18 19  1  0  0  0
 19 20  2  0  0  0
 19 21  1  0  0  0
 21 22  1  0  0  0
 22 23  1  0  0  0
 12  8  2  0  0  0
  6  1  1  0  0  0
 31 26  1  0  0  0
 20 15  1  0  0  0
 23 18  1  0  0  0
M  CHG 1  26   1
M  END
> <minimizedAffinity>
-4.87695

$$$$



 32 35  0  0  0  0  0  0  0  0999 V2000
  -28.1917   33.3487   13.6520 C   0  0  0  0  0  0  0  0  0  0  0  0
  -27.5827   34.5480   12.9880 N   0  0  0  0  0  0  0  0  0  0  0  0
  -28.6314   35.6179   12.9114 C   0  0  0  0  0  0  0  0  0  0  0  0
  -29.8885   35.0797   13.5281 C   0  0  0  0  0  0  0  0  0  0  0  0
  -29.6167   33.6774   13.9858 O   0  0  0  0  0  0  0  0  0  0  0  0
  -28.4541   36.9856   12.3217 C   0  0  0  0  0  0  0  0  0  0  0  0
  -29.2028   37.3698   11.0800 O   0  0  0  0  0  0  0  0  0  0  0  0
  -27.5281   37.9692   12.9737 N   0  0  0  0  0  0  0  0  0  0  0  0
  -26.7794   37.5849   14.2155 C   0  0  0  0  0  0  0  0  0  0  0  0
  -25.8534   38.5685   14.8675 C   0  0  0  0  0  0  0  0  0  0  0  0
  -25.6761   39.9362   14.2778 N   0  0  0  0  0  0  0  0  0  0  0  0
  -26.4248   40.3205   13.0361 C   0  0  0  0  0  0  0  0  0  0  0  0
  -27.3508   39.3369   12.3840 C   0  0  0  0  0  0  0  0  0  0  0  0
  -24.7501   40.9198   14.9299 C   0  0  0  0  0  0  0  0  0  0  0  0
  -23.4430   40.4549   15.5004 C   0  0  0  0  0  0  0  0  0  0  0  0
  -22.5171   41.4384   16.1524 C   0  0  0  0  0  0  0  0  0  0  0  0
  -22.8980   42.8870   16.2339 C   0  0  0  0  0  0  0  0  0  0  0  0
  -24.2051   43.3520   15.6633 C   0  0  0  0  0  0  0  0  0  0  0  0
  -25.1311   42.3684   15.0113 C   0  0  0  0  0  0  0  0  0  0  0  0
  -21.9721   43.8705   16.8859 F   0  0  0  0  0  0  0  0  0  0  0  0
  -27.4976   32.0490   13.9329 C   0  0  0  0  0  0  0  0  0  0  0  0
  -26.1307   31.0850   18.1105 N   0  0  0  0  0  0  0  0  0  0  0  0
  -25.9183   32.4602   17.5504 C   0  0  0  0  0  0  0  0  0  0  0  0
  -26.3739   32.7815   16.1579 C   0  0  0  0  0  0  0  0  0  0  0  0
  -27.0420   31.7276   15.3254 N   0  0  0  0  0  0  0  0  0  0  0  0
  -27.2544   30.3525   15.8855 C   0  0  0  0  0  0  0  0  0  0  0  0
  -26.7988   30.0311   17.2780 C   0  0  0  0  0  0  0  0  0  0  0  0
  -25.6751   30.7637   19.5030 C   0  0  0  0  0  0  0  0  0  0  0  0
  -25.8590   31.7672   20.6026 C   0  0  0  0  0  0  0  0  0  0  0  0
  -27.2308   32.2778   20.9304 O   0  0  0  0  0  0  0  0  0  0  0  0
  -23.7631   33.2929   20.7749 C   0  0  0  0  0  0  0  0  0  0  0  0
  -24.6710   32.2602   21.3744 C   0  0  0  0  0  0  0  0  0  0  0  0
 31 32  1  0  0  0
 32 29  1  0  0  0
 29 28  1  0  0  0
 28 22  1  0  0  0
 22 23  1  0  0  0
 23 24  1  0  0  0
 24 25  1  0  0  0
 25 26  1  0  0  0
 26 27  1  0  0  0
 25 21  1  0  0  0
 21  1  1  0  0  0
  1  2  2  0  0  0
  2  3  1  0  0  0
  3  4  2  0  0  0
  4  5  1  0  0  0
  3  6  1  0  0  0
  6  7  2  0  0  0
  6  8  1  0  0  0
  8  9  1  0  0  0
  9 10  1  0  0  0
 10 11  1  0  0  0
 11 12  1  0  0  0
 12 13  1  0  0  0
 11 14  1  0  0  0
 14 15  2  0  0  0
 15 16  1  0  0  0
 16 17  2  0  0  0
 17 18  1  0  0  0
 18 19  2  0  0  0
 17 20  1  0  0  0
 29 30  1  0  0  0
 27 22  1  0  0  0
  5  1  1  0  0  0
 13  8  1  0  0  0
 19 14  1  0  0  0
M  CHG 1  22   1
M  END
> <minimizedAffinity>
-5.50506

$$$$



 33 37  0  0  0  0  0  0  0  0999 V2000
  -28.0381   39.2537   13.2430 C   0  0  0  0  0  0  0  0  0  0  0  0
  -29.3661   39.2761   12.5459 C   0  0  0  0  0  0  0  0  0  0  0  0
  -30.4268   38.9619   13.5590 C   0  0  0  0  0  0  0  0  0  0  0  0
  -31.9011   38.8789   13.2951 O   0  0  0  0  0  0  0  0  0  0  0  0
  -29.7544   38.7452   14.8822 N   0  0  0  0  0  0  0  0  0  0  0  0
  -28.2781   38.9256   14.6869 C   0  0  0  0  0  0  0  0  0  0  0  0
  -29.5935   39.5625   11.0912 O   0  0  0  0  0  0  0  0  0  0  0  0
  -27.2264   38.7999   15.7491 C   0  0  0  0  0  0  0  0  0  0  0  0
  -27.0049   39.7513   16.8874 C   0  0  0  0  0  0  0  0  0  0  0  0
  -25.8532   39.2401   17.7013 C   0  0  0  0  0  0  0  0  0  0  0  0
  -25.3629   37.9729   17.0659 C   0  0  0  0  0  0  0  0  0  0  0  0
  -26.2116   37.7008   15.8595 O   0  0  0  0  0  0  0  0  0  0  0  0
  -26.7044   39.5138   12.6078 C   0  0  0  0  0  0  0  0  0  0  0  0
  -26.5070   39.2522   11.1441 O   0  0  0  0  0  0  0  0  0  0  0  0
  -22.4377   44.1889   17.2513 C   0  0  0  0  0  0  0  0  0  0  0  0
  -23.0233   43.1222   16.3742 C   0  0  0  0  0  0  0  0  0  0  0  0
  -24.3857   43.1459   15.7470 C   0  0  0  0  0  0  0  0  0  0  0  0
  -24.5537   41.8829   14.9555 C   0  0  0  0  0  0  0  0  0  0  0  0
  -25.6901   41.3613   14.1269 C   0  0  0  0  0  0  0  0  0  0  0  0
  -25.5680   40.0354   13.4364 C   0  0  0  0  0  0  0  0  0  0  0  0
  -24.3094   39.2310   13.5744 C   0  0  0  0  0  0  0  0  0  0  0  0
  -23.1730   39.7526   14.4029 C   0  0  0  0  0  0  0  0  0  0  0  0
  -23.2952   41.0785   15.0935 C   0  0  0  0  0  0  0  0  0  0  0  0
  -22.3494   41.8445   15.9703 O   0  0  0  0  0  0  0  0  0  0  0  0
  -30.4381   38.4075   16.1738 C   0  0  0  0  0  0  0  0  0  0  0  0
  -31.3613   37.2275   16.2477 C   0  0  0  0  0  0  0  0  0  0  0  0
  -30.7993   35.8380   16.3040 C   0  0  0  0  0  0  0  0  0  0  0  0
  -29.8480   35.3701   15.2429 N   0  0  0  0  0  0  0  0  0  0  0  0
  -28.4053   35.1348   15.5797 C   0  0  0  0  0  0  0  0  0  0  0  0
  -27.4540   34.6670   14.5187 C   0  0  0  0  0  0  0  0  0  0  0  0
  -27.9452   34.4344   13.1206 O   0  0  0  0  0  0  0  0  0  0  0  0
  -29.3879   34.6696   12.7836 C   0  0  0  0  0  0  0  0  0  0  0  0
  -30.3393   35.1375   13.8448 C   0  0  0  0  0  0  0  0  0  0  0  0
 16 15  1  0  0  0
 16 17  1  0  0  0
 17 18  1  0  0  0
 18 19  2  0  0  0
 19 20  1  0  0  0
 20 21  2  0  0  0
 21 22  1  0  0  0
 22 23  2  0  0  0
 23 24  1  0  0  0
 20 13  1  0  0  0
 13 14  2  0  0  0
 13  1  1  0  0  0
  1  2  2  0  0  0
  2  3  1  0  0  0
  3  4  2  0  0  0
  3  5  1  0  0  0
  5  6  1  0  0  0
  6  8  1  0  0  0
  8  9  2  0  0  0
  9 10  1  0  0  0
 10 11  2  0  0  0
 11 12  1  0  0  0
  5 25  1  0  0  0
 25 26  1  0  0  0
 26 27  1  0  0  0
 27 28  1  0  0  0
 28 29  1  0  0  0
 29 30  1  0  0  0
 30 31  1  0  0  0
 31 32  1  0  0  0
 32 33  1  0  0  0
  2  7  1  0  0  0
 24 16  1  0  0  0
 23 18  1  0  0  0
  6  1  1  0  0  0
 12  8  1  0  0  0
 33 28  1  0  0  0
M  CHG 1  28   1
M  END
> <minimizedAffinity>
-5.60108

$$$$



 33 36  0  0  0  0  0  0  0  0999 V2000
  -29.5855   39.8220   15.4912 N   0  0  0  0  0  0  0  0  0  0  0  0
  -29.6877   39.1647   14.1467 C   0  0  0  0  0  0  0  0  0  0  0  0
  -28.3827   39.3618   13.4341 C   0  0  0  0  0  0  0  0  0  0  0  0
  -27.4739   40.1410   14.3380 C   0  0  0  0  0  0  0  0  0  0  0  0
  -28.2173   40.4254   15.6094 C   0  0  0  0  0  0  0  0  0  0  0  0
  -27.6859   41.1806   16.7914 O   0  0  0  0  0  0  0  0  0  0  0  0
  -26.0869   40.4908   13.8866 C   0  0  0  0  0  0  0  0  0  0  0  0
  -25.6086   40.0615   12.5313 N   0  0  0  0  0  0  0  0  0  0  0  0
  -26.5173   39.2824   11.6274 C   0  0  0  0  0  0  0  0  0  0  0  0
  -26.0390   38.8530   10.2720 O   0  0  0  0  0  0  0  0  0  0  0  0
  -27.9044   38.9325   12.0787 N   0  0  0  0  0  0  0  0  0  0  0  0
  -28.8131   38.1534   11.1747 C   0  0  0  0  0  0  0  0  0  0  0  0
  -25.1781   41.2700   14.7905 C   0  0  0  0  0  0  0  0  0  0  0  0
  -25.2163   42.7695   14.7810 C   0  0  0  0  0  0  0  0  0  0  0  0
  -24.3077   43.5487   15.6849 C   0  0  0  0  0  0  0  0  0  0  0  0
  -23.3606   42.8284   16.5984 C   0  0  0  0  0  0  0  0  0  0  0  0
  -23.3224   41.3289   16.6079 C   0  0  0  0  0  0  0  0  0  0  0  0
  -24.2312   40.5496   15.7040 C   0  0  0  0  0  0  0  0  0  0  0  0
  -24.1930   39.0502   15.7135 C   0  0  0  0  0  0  0  0  0  0  0  0
  -24.1548   37.5507   15.7230 F   0  0  0  0  0  0  0  0  0  0  0  0
  -25.2354   39.0305   16.7920 F   0  0  0  0  0  0  0  0  0  0  0  0
  -23.1506   39.0699   14.6350 F   0  0  0  0  0  0  0  0  0  0  0  0
  -30.6625   39.8679   16.5343 C   0  0  0  0  0  0  0  0  0  0  0  0
  -32.1796   35.3883   19.1574 N   0  0  0  0  0  0  0  0  0  0  0  0
  -33.2524   35.6611   18.1451 C   0  0  0  0  0  0  0  0  0  0  0  0
  -33.1413   36.8492   17.2362 C   0  0  0  0  0  0  0  0  0  0  0  0
  -31.9575   37.7644   17.3397 N   0  0  0  0  0  0  0  0  0  0  0  0
  -30.8847   37.4917   18.3520 C   0  0  0  0  0  0  0  0  0  0  0  0
  -30.9958   36.3036   19.2609 C   0  0  0  0  0  0  0  0  0  0  0  0
  -31.8463   38.9526   16.4308 C   0  0  0  0  0  0  0  0  0  0  0  0
  -32.9191   39.2254   15.4185 O   0  0  0  0  0  0  0  0  0  0  0  0
  -33.6101   33.5073   20.2372 C   0  0  0  0  0  0  0  0  0  0  0  0
  -32.2907   34.2002   20.0663 C   0  0  0  0  0  0  0  0  0  0  0  0
 32 33  1  0  0  0
 33 24  1  0  0  0
 24 25  1  0  0  0
 25 26  1  0  0  0
 26 27  1  0  0  0
 27 28  1  0  0  0
 28 29  1  0  0  0
 27 30  1  0  0  0
 30 31  2  0  0  0
 30 23  1  0  0  0
 23  1  1  0  0  0
  1  2  1  0  0  0
  2  3  1  0  0  0
  3  4  2  0  0  0
  4  5  1  0  0  0
  5  6  2  0  0  0
  4  7  1  0  0  0
  7  8  1  0  0  0
  8  9  1  0  0  0
  9 10  2  0  0  0
  9 11  1  0  0  0
 11 12  1  0  0  0
  7 13  1  0  0  0
 13 14  2  0  0  0
 14 15  1  0  0  0
 15 16  2  0  0  0
 16 17  1  0  0  0
 17 18  2  0  0  0
 18 19  1  0  0  0
 19 20  1  0  0  0
 19 21  1  0  0  0
 19 22  1  0  0  0
 29 24  1  0  0  0
  5  1  1  0  0  0
 11  3  1  0  0  0
 18 13  1  0  0  0
M  CHG 1  24   1
M  END
> <minimizedAffinity>
-5.44527

$$$$



 34 38  0  0  0  0  0  0  0  0999 V2000
  -27.6092   38.9712   13.3426 C   0  0  0  0  0  0  0  0  0  0  0  0
  -29.0218   39.1635   12.8763 C   0  0  0  0  0  0  0  0  0  0  0  0
  -29.9265   38.4347   13.8252 C   0  0  0  0  0  0  0  0  0  0  0  0
  -31.4221   38.3615   13.7368 O   0  0  0  0  0  0  0  0  0  0  0  0
  -29.0730   37.7919   14.8780 N   0  0  0  0  0  0  0  0  0  0  0  0
  -27.6408   38.1235   14.5797 C   0  0  0  0  0  0  0  0  0  0  0  0
  -29.4540   39.9472   11.6725 O   0  0  0  0  0  0  0  0  0  0  0  0
  -26.4494   37.6844   15.3783 C   0  0  0  0  0  0  0  0  0  0  0  0
  -26.0268   38.4663   16.5867 C   0  0  0  0  0  0  0  0  0  0  0  0
  -24.8355   38.0272   17.3852 C   0  0  0  0  0  0  0  0  0  0  0  0
  -24.0666   36.8061   16.9755 C   0  0  0  0  0  0  0  0  0  0  0  0
  -24.4891   36.0242   15.7672 N   0  0  0  0  0  0  0  0  0  0  0  0
  -25.6805   36.4633   14.9686 C   0  0  0  0  0  0  0  0  0  0  0  0
  -26.3807   39.5287   12.6870 C   0  0  0  0  0  0  0  0  0  0  0  0
  -26.2524   39.5066   11.1926 O   0  0  0  0  0  0  0  0  0  0  0  0
  -22.4836   44.2975   17.5547 C   0  0  0  0  0  0  0  0  0  0  0  0
  -22.9818   43.2374   16.6177 C   0  0  0  0  0  0  0  0  0  0  0  0
  -24.3568   43.1618   16.0229 C   0  0  0  0  0  0  0  0  0  0  0  0
  -24.4174   41.9445   15.1486 C   0  0  0  0  0  0  0  0  0  0  0  0
  -25.5176   41.3648   14.3099 C   0  0  0  0  0  0  0  0  0  0  0  0
  -25.2804   40.1083   13.5256 C   0  0  0  0  0  0  0  0  0  0  0  0
  -23.9428   39.4316   13.5800 C   0  0  0  0  0  0  0  0  0  0  0  0
  -22.8426   40.0113   14.4188 C   0  0  0  0  0  0  0  0  0  0  0  0
  -23.0798   41.2677   15.2030 C   0  0  0  0  0  0  0  0  0  0  0  0
  -22.1926   42.0668   16.1110 O   0  0  0  0  0  0  0  0  0  0  0  0
  -29.5652   36.9630   16.0272 C   0  0  0  0  0  0  0  0  0  0  0  0
  -29.1239   35.5361   16.1660 C   0  0  0  0  0  0  0  0  0  0  0  0
  -28.4392   35.0814   17.4207 C   0  0  0  0  0  0  0  0  0  0  0  0
  -27.2382   34.1867   17.3377 N   0  0  0  0  0  0  0  0  0  0  0  0
  -26.2414   34.1634   18.4583 C   0  0  0  0  0  0  0  0  0  0  0  0
  -25.0404   33.2686   18.3753 C   0  0  0  0  0  0  0  0  0  0  0  0
  -24.8361   32.3971   17.1717 O   0  0  0  0  0  0  0  0  0  0  0  0
  -25.8330   32.4204   16.0510 C   0  0  0  0  0  0  0  0  0  0  0  0
  -27.0340   33.3152   16.1340 C   0  0  0  0  0  0  0  0  0  0  0  0
 17 16  1  0  0  0
 17 18  1  0  0  0
 18 19  1  0  0  0
 19 20  2  0  0  0
 20 21  1  0  0  0
 21 22  2  0  0  0
 22 23  1  0  0  0
 23 24  2  0  0  0
 24 25  1  0  0  0
 21 14  1  0  0  0
 14 15  2  0  0  0
 14  1  1  0  0  0
  1  2  2  0  0  0
  2  3  1  0  0  0
  3  4  2  0  0  0
  3  5  1  0  0  0
  5  6  1  0  0  0
  6  8  1  0  0  0
  8  9  2  0  0  0
  9 10  1  0  0  0
 10 11  2  0  0  0
 11 12  1  0  0  0
 12 13  2  0  0  0
  5 26  1  0  0  0
 26 27  1  0  0  0
 27 28  1  0  0  0
 28 29  1  0  0  0
 29 30  1  0  0  0
 30 31  1  0  0  0
 31 32  1  0  0  0
 32 33  1  0  0  0
 33 34  1  0  0  0
  2  7  1  0  0  0
 25 17  1  0  0  0
 24 19  1  0  0  0
  6  1  1  0  0  0
 13  8  1  0  0  0
 34 29  1  0  0  0
M  CHG 1  29   1
M  END
> <minimizedAffinity>
-5.48210

$$$$



 37 41  0  0  0  0  0  0  0  0999 V2000
  -29.9008   38.3934   12.4356 N   0  0  0  0  0  0  0  0  0  0  0  0
  -30.2679   36.9946   12.8337 C   0  0  0  0  0  0  0  0  0  0  0  0
  -29.1972   36.0233   13.2339 C   0  0  0  0  0  0  0  0  0  0  0  0
  -29.2553   34.5897   13.6716 C   0  0  0  0  0  0  0  0  0  0  0  0
  -30.4972   33.7603   13.8120 O   0  0  0  0  0  0  0  0  0  0  0  0
  -27.8533   34.1312   13.9442 N   0  0  0  0  0  0  0  0  0  0  0  0
  -26.9289   35.2814   13.6749 N   0  0  0  0  0  0  0  0  0  0  0  0
  -27.7594   36.4507   13.2359 C   0  0  0  0  0  0  0  0  0  0  0  0
  -27.3923   37.8495   12.8378 C   0  0  0  0  0  0  0  0  0  0  0  0
  -28.4630   38.8209   12.4377 C   0  0  0  0  0  0  0  0  0  0  0  0
  -25.9545   38.2770   12.8399 C   0  0  0  0  0  0  0  0  0  0  0  0
  -24.9333   37.4777   12.0861 O   0  0  0  0  0  0  0  0  0  0  0  0
  -25.5379   39.5038   13.5958 N   0  0  0  0  0  0  0  0  0  0  0  0
  -26.5591   40.3032   14.3496 C   0  0  0  0  0  0  0  0  0  0  0  0
  -26.1424   41.5300   15.1055 C   0  0  0  0  0  0  0  0  0  0  0  0
  -24.7046   41.9575   15.1075 N   0  0  0  0  0  0  0  0  0  0  0  0
  -23.6835   41.1581   14.3537 C   0  0  0  0  0  0  0  0  0  0  0  0
  -24.1001   39.9314   13.5978 C   0  0  0  0  0  0  0  0  0  0  0  0
  -24.2880   43.1843   15.8634 C   0  0  0  0  0  0  0  0  0  0  0  0
  -23.0934   43.1375   16.7693 C   0  0  0  0  0  0  0  0  0  0  0  0
  -22.8693   41.9471   17.6540 O   0  0  0  0  0  0  0  0  0  0  0  0
  -22.1229   44.2811   16.7905 N   0  0  0  0  0  0  0  0  0  0  0  0
  -20.9283   44.2343   17.6964 C   0  0  0  0  0  0  0  0  0  0  0  0
  -20.9253   45.0190   18.9748 C   0  0  0  0  0  0  0  0  0  0  0  0
  -19.7307   44.9722   19.8807 C   0  0  0  0  0  0  0  0  0  0  0  0
  -18.5391   44.1406   19.5083 C   0  0  0  0  0  0  0  0  0  0  0  0
  -18.5421   43.3560   18.2299 C   0  0  0  0  0  0  0  0  0  0  0  0
  -19.7368   43.4028   17.3240 C   0  0  0  0  0  0  0  0  0  0  0  0
  -27.4471   32.7627   14.4051 C   0  0  0  0  0  0  0  0  0  0  0  0
  -27.8618   31.5533   13.6207 C   0  0  0  0  0  0  0  0  0  0  0  0
  -27.4556   30.1849   14.0816 C   0  0  0  0  0  0  0  0  0  0  0  0
  -26.6346   30.0260   15.3269 C   0  0  0  0  0  0  0  0  0  0  0  0
  -26.2200   31.2354   16.1113 C   0  0  0  0  0  0  0  0  0  0  0  0
  -26.6262   32.6038   15.6504 C   0  0  0  0  0  0  0  0  0  0  0  0
  -31.0961   39.7960   10.6041 C   0  0  0  0  0  0  0  0  0  0  0  0
  -30.9714   39.3648   12.0354 C   0  0  0  0  0  0  0  0  0  0  0  0
  -31.9175   39.9050   13.0665 C   0  0  0  0  0  0  0  0  0  0  0  0
 35 36  1  0  0  0
 36 37  1  0  0  0
 36  1  1  0  0  0
  1  2  1  0  0  0
  2  3  2  0  0  0
  3  4  1  0  0  0
  4  5  2  0  0  0
  4  6  1  0  0  0
  6  7  1  0  0  0
  7  8  2  0  0  0
  8  9  1  0  0  0
  9 10  2  0  0  0
  9 11  1  0  0  0
 11 12  2  0  0  0
 11 13  1  0  0  0
 13 14  1  0  0  0
 14 15  1  0  0  0
 15 16  1  0  0  0
 16 17  1  0  0  0
 17 18  1  0  0  0
 16 19  1  0  0  0
 19 20  1  0  0  0
 20 21  2  0  0  0
 20 22  1  0  0  0
 22 23  1  0  0  0
 23 24  2  0  0  0
 24 25  1  0  0  0
 25 26  2  0  0  0
 26 27  1  0  0  0
 27 28  2  0  0  0
  6 29  1  0  0  0
 29 30  2  0  0  0
 30 31  1  0  0  0
 31 32  2  0  0  0
 32 33  1  0  0  0
 33 34  2  0  0  0
 10  1  1  0  0  0
  3  8  1  0  0  0
 18 13  1  0  0  0
 28 23  1  0  0  0
 34 29  1  0  0  0
M  CHG 1  16   1
M  END
> <minimizedAffinity>
-6.89272

$$$$



 36 40  0  0  0  0  0  0  0  0999 V2000
  -21.8391   36.4378   19.0249 C   0  0  0  0  0  0  0  0  0  0  0  0
  -23.1101   35.0683   17.2196 C   0  0  0  0  0  0  0  0  0  0  0  0
  -21.8071   34.5191   16.7189 O   0  0  0  0  0  0  0  0  0  0  0  0
  -23.1260   36.0276   18.3726 N   0  0  0  0  0  0  0  0  0  0  0  0
  -26.1276   32.8159   15.9660 N   0  0  0  0  0  0  0  0  0  0  0  0
  -24.8406   33.2261   16.6182 C   0  0  0  0  0  0  0  0  0  0  0  0
  -24.3971   34.6581   16.5673 C   0  0  0  0  0  0  0  0  0  0  0  0
  -25.2405   35.6800   15.8642 C   0  0  0  0  0  0  0  0  0  0  0  0
  -24.7970   37.1120   15.8133 O   0  0  0  0  0  0  0  0  0  0  0  0
  -26.5275   35.2698   15.2119 C   0  0  0  0  0  0  0  0  0  0  0  0
  -26.9711   33.8378   15.2628 C   0  0  0  0  0  0  0  0  0  0  0  0
  -28.2580   33.4276   14.6105 N   0  0  0  0  0  0  0  0  0  0  0  0
  -29.1014   34.4494   13.9074 C   0  0  0  0  0  0  0  0  0  0  0  0
  -28.6579   35.8815   13.8565 C   0  0  0  0  0  0  0  0  0  0  0  0
  -27.3710   36.2916   14.5088 C   0  0  0  0  0  0  0  0  0  0  0  0
  -30.3885   34.0393   13.2551 C   0  0  0  0  0  0  0  0  0  0  0  0
  -26.1986   30.4436   14.9092 C   0  0  0  0  0  0  0  0  0  0  0  0
  -26.5711   31.3839   16.0168 C   0  0  0  0  0  0  0  0  0  0  0  0
  -21.2749   37.8053   18.7766 C   0  0  0  0  0  0  0  0  0  0  0  0
  -22.0658   38.8124   17.9954 C   0  0  0  0  0  0  0  0  0  0  0  0
  -22.7333   39.9543   18.7030 C   0  0  0  0  0  0  0  0  0  0  0  0
  -23.5241   40.9613   17.9218 C   0  0  0  0  0  0  0  0  0  0  0  0
  -23.6475   40.8267   16.4330 C   0  0  0  0  0  0  0  0  0  0  0  0
  -22.9800   39.6849   15.7254 C   0  0  0  0  0  0  0  0  0  0  0  0
  -22.1891   38.6777   16.5066 C   0  0  0  0  0  0  0  0  0  0  0  0
  -23.2757   39.8110   14.2602 C   0  0  0  0  0  0  0  0  0  0  0  0
  -24.1260   41.0308   14.0624 C   0  0  0  0  0  0  0  0  0  0  0  0
  -24.3557   41.6585   15.4052 N   0  0  0  0  0  0  0  0  0  0  0  0
  -25.1536   42.9001   15.6732 C   0  0  0  0  0  0  0  0  0  0  0  0
  -19.9199   38.1657   19.3095 N   0  0  0  0  0  0  0  0  0  0  0  0
  -19.1300   39.2673   18.6671 C   0  0  0  0  0  0  0  0  0  0  0  0
  -17.7750   39.6277   19.2000 C   0  0  0  0  0  0  0  0  0  0  0  0
  -17.2099   38.8866   20.3753 N   0  0  0  0  0  0  0  0  0  0  0  0
  -17.9997   37.7851   21.0177 C   0  0  0  0  0  0  0  0  0  0  0  0
  -19.3548   37.4246   20.4848 C   0  0  0  0  0  0  0  0  0  0  0  0
  -15.8548   39.2471   20.9083 C   0  0  0  0  0  0  0  0  0  0  0  0
 17 18  1  0  0  0
 18  5  1  0  0  0
  5  6  1  0  0  0
  6  7  2  0  0  0
  7  8  1  0  0  0
  8  9  2  0  0  0
  8 10  1  0  0  0
 10 11  2  0  0  0
 11 12  1  0  0  0
 12 13  2  0  0  0
 13 14  1  0  0  0
 14 15  2  0  0  0
 13 16  1  0  0  0
  7  2  1  0  0  0
  2  3  2  0  0  0
  2  4  1  0  0  0
  4  1  1  0  0  0
 19  1  1  0  0  0
 19 20  1  0  0  0
 20 21  2  0  0  0
 21 22  1  0  0  0
 22 23  2  0  0  0
 23 24  1  0  0  0
 24 25  2  0  0  0
 24 26  1  0  0  0
 26 27  1  0  0  0
 27 28  1  0  0  0
 28 29  1  0  0  0
 19 30  1  0  0  0
 30 31  1  0  0  0
 31 32  1  0  0  0
 32 33  1  0  0  0
 33 34  1  0  0  0
 34 35  1  0  0  0
 33 36  1  0  0  0
 11  5  1  0  0  0
 15 10  1  0  0  0
 25 20  1  0  0  0
 28 23  1  0  0  0
 35 30  1  0  0  0
M  CHG 1  33   1
M  END
> <minimizedAffinity>
-6.22548

$$$$



 32 35  0  0  0  0  0  0  0  0999 V2000
  -26.8939   35.5666   16.4167 C   0  0  0  0  0  0  0  0  0  0  0  0
  -26.4172   35.1913   17.7885 C   0  0  0  0  0  0  0  0  0  0  0  0
  -25.4396   36.2351   18.2411 C   0  0  0  0  0  0  0  0  0  0  0  0
  -24.7165   36.2550   19.5552 O   0  0  0  0  0  0  0  0  0  0  0  0
  -25.3122   37.2555   17.1491 N   0  0  0  0  0  0  0  0  0  0  0  0
  -26.2110   36.8424   16.0215 C   0  0  0  0  0  0  0  0  0  0  0  0
  -26.7304   34.0435   18.7019 O   0  0  0  0  0  0  0  0  0  0  0  0
  -26.3947   37.5762   14.7262 C   0  0  0  0  0  0  0  0  0  0  0  0
  -25.6310   37.1495   13.5077 C   0  0  0  0  0  0  0  0  0  0  0  0
  -25.8147   37.8833   12.2124 C   0  0  0  0  0  0  0  0  0  0  0  0
  -26.7621   39.0437   12.1356 C   0  0  0  0  0  0  0  0  0  0  0  0
  -27.5258   39.4704   13.3541 C   0  0  0  0  0  0  0  0  0  0  0  0
  -27.3421   38.7366   14.6494 C   0  0  0  0  0  0  0  0  0  0  0  0
  -28.4732   40.6308   13.2773 F   0  0  0  0  0  0  0  0  0  0  0  0
  -27.8803   34.8007   15.5859 C   0  0  0  0  0  0  0  0  0  0  0  0
  -27.5851   33.3854   15.1859 O   0  0  0  0  0  0  0  0  0  0  0  0
  -30.4130   35.9481   17.5541 C   0  0  0  0  0  0  0  0  0  0  0  0
  -30.2507   35.9401   16.0629 C   0  0  0  0  0  0  0  0  0  0  0  0
  -29.1620   35.4498   15.1549 C   0  0  0  0  0  0  0  0  0  0  0  0
  -29.5801   35.7227   13.7405 C   0  0  0  0  0  0  0  0  0  0  0  0
  -30.9273   36.3817   13.7742 N   0  0  0  0  0  0  0  0  0  0  0  0
  -31.3417   36.5160   15.2095 N   0  0  0  0  0  0  0  0  0  0  0  0
  -28.7899   35.3944   12.5085 C   0  0  0  0  0  0  0  0  0  0  0  0
  -24.4393   38.4750   17.1794 C   0  0  0  0  0  0  0  0  0  0  0  0
  -23.2370   38.5592   16.2866 C   0  0  0  0  0  0  0  0  0  0  0  0
  -23.1948   39.5693   15.1785 C   0  0  0  0  0  0  0  0  0  0  0  0
  -23.5244   41.0053   15.4597 N   0  0  0  0  0  0  0  0  0  0  0  0
  -24.7452   41.6280   14.8499 C   0  0  0  0  0  0  0  0  0  0  0  0
  -25.0747   43.0641   15.1311 C   0  0  0  0  0  0  0  0  0  0  0  0
  -24.1835   43.8775   16.0222 O   0  0  0  0  0  0  0  0  0  0  0  0
  -22.9628   43.2548   16.6321 C   0  0  0  0  0  0  0  0  0  0  0  0
  -22.6332   41.8187   16.3509 C   0  0  0  0  0  0  0  0  0  0  0  0
 18 17  1  0  0  0
 18 19  1  0  0  0
 19 20  2  0  0  0
 20 21  1  0  0  0
 21 22  2  0  0  0
 20 23  1  0  0  0
 19 15  1  0  0  0
 15 16  2  0  0  0
 15  1  1  0  0  0
  1  2  2  0  0  0
  2  3  1  0  0  0
  3  4  2  0  0  0
  3  5  1  0  0  0
  5  6  1  0  0  0
  6  8  1  0  0  0
  8  9  2  0  0  0
  9 10  1  0  0  0
 10 11  2  0  0  0
 11 12  1  0  0  0
 12 13  2  0  0  0
 12 14  1  0  0  0
  5 24  1  0  0  0
 24 25  1  0  0  0
 25 26  1  0  0  0
 26 27  1  0  0  0
 27 28  1  0  0  0
 28 29  1  0  0  0
 29 30  1  0  0  0
 30 31  1  0  0  0
 31 32  1  0  0  0
  2  7  1  0  0  0
 22 18  1  0  0  0
  6  1  1  0  0  0
 13  8  1  0  0  0
 32 27  1  0  0  0
M  CHG 1  27   1
M  END
> <minimizedAffinity>
-5.08412

$$$$



 34 38  0  0  0  0  0  0  0  0999 V2000
  -31.7563   36.8110   17.4729 N   0  0  0  0  0  0  0  0  0  0  0  0
  -31.0908   38.1491   17.6017 C   0  0  0  0  0  0  0  0  0  0  0  0
  -30.0596   38.5735   16.5985 C   0  0  0  0  0  0  0  0  0  0  0  0
  -29.6939   37.6598   15.4665 C   0  0  0  0  0  0  0  0  0  0  0  0
  -28.6626   38.0842   14.4632 N   0  0  0  0  0  0  0  0  0  0  0  0
  -28.2969   37.1705   13.3312 C   0  0  0  0  0  0  0  0  0  0  0  0
  -28.9625   35.8324   13.2024 N   0  0  0  0  0  0  0  0  0  0  0  0
  -29.9937   35.4080   14.2057 C   0  0  0  0  0  0  0  0  0  0  0  0
  -30.6593   34.0700   14.0769 O   0  0  0  0  0  0  0  0  0  0  0  0
  -30.3594   36.3217   15.3377 C   0  0  0  0  0  0  0  0  0  0  0  0
  -31.3906   35.8973   16.3409 C   0  0  0  0  0  0  0  0  0  0  0  0
  -32.7876   36.3866   18.4761 C   0  0  0  0  0  0  0  0  0  0  0  0
  -31.2297   34.6033   19.5453 C   0  0  0  0  0  0  0  0  0  0  0  0
  -31.0511   33.3251   20.3096 C   0  0  0  0  0  0  0  0  0  0  0  0
  -32.2515   32.5519   20.7691 C   0  0  0  0  0  0  0  0  0  0  0  0
  -33.6306   33.0570   20.4643 C   0  0  0  0  0  0  0  0  0  0  0  0
  -33.8094   34.3352   19.6999 C   0  0  0  0  0  0  0  0  0  0  0  0
  -32.6089   35.1084   19.2404 C   0  0  0  0  0  0  0  0  0  0  0  0
  -32.0728   31.2737   21.5334 F   0  0  0  0  0  0  0  0  0  0  0  0
  -27.2657   37.5948   12.3280 S   0  0  0  0  0  0  0  0  0  0  0  0
  -25.8149   37.6197   12.7084 C   0  0  0  0  0  0  0  0  0  0  0  0
  -25.3143   38.6375   13.6899 C   0  0  0  0  0  0  0  0  0  0  0  0
  -25.2288   38.2949   15.1477 O   0  0  0  0  0  0  0  0  0  0  0  0
  -24.8991   39.9979   13.2135 N   0  0  0  0  0  0  0  0  0  0  0  0
  -24.3984   41.0158   14.1951 C   0  0  0  0  0  0  0  0  0  0  0  0
  -25.2467   42.2030   14.5428 C   0  0  0  0  0  0  0  0  0  0  0  0
  -24.7460   43.2208   15.5242 C   0  0  0  0  0  0  0  0  0  0  0  0
  -23.3971   43.0514   16.1580 C   0  0  0  0  0  0  0  0  0  0  0  0
  -22.5488   41.8642   15.8103 C   0  0  0  0  0  0  0  0  0  0  0  0
  -23.0495   40.8464   14.8288 C   0  0  0  0  0  0  0  0  0  0  0  0
  -21.1998   41.6949   16.4441 O   0  0  0  0  0  0  0  0  0  0  0  0
  -20.6992   42.7127   17.4255 C   0  0  0  0  0  0  0  0  0  0  0  0
  -21.5475   43.8999   17.7732 C   0  0  0  0  0  0  0  0  0  0  0  0
  -22.8964   44.0693   17.1395 O   0  0  0  0  0  0  0  0  0  0  0  0
 13 14  2  0  0  0
 14 15  1  0  0  0
 15 16  2  0  0  0
 16 17  1  0  0  0
 17 18  2  0  0  0
 18 12  1  0  0  0
 12  1  1  0  0  0
  1  2  1  0  0  0
  2  3  1  0  0  0
  3  4  1  0  0  0
  4  5  2  0  0  0
  5  6  1  0  0  0
  6  7  2  0  0  0
  7  8  1  0  0  0
  8  9  2  0  0  0
  8 10  1  0  0  0
 10 11  1  0  0  0
  6 20  1  0  0  0
 20 21  1  0  0  0
 21 22  1  0  0  0
 22 23  2  0  0  0
 22 24  1  0  0  0
 24 25  1  0  0  0
 25 26  2  0  0  0
 26 27  1  0  0  0
 27 28  2  0  0  0
 28 29  1  0  0  0
 29 30  2  0  0  0
 29 31  1  0  0  0
 31 32  1  0  0  0
 32 33  1  0  0  0
 33 34  1  0  0  0
 15 19  1  0  0  0
 18 13  1  0  0  0
 11  1  1  0  0  0
 10  4  1  0  0  0
 30 25  1  0  0  0
 34 28  1  0  0  0
M  CHG 1   1   1
M  END
> <minimizedAffinity>
-6.29876

$$$$



 32 35  0  0  0  0  0  0  0  0999 V2000
  -24.4417   37.8695   17.2802 C   0  0  0  0  0  0  0  0  0  0  0  0
  -24.4909   37.3353   18.6810 C   0  0  0  0  0  0  0  0  0  0  0  0
  -25.7953   36.6157   18.8570 C   0  0  0  0  0  0  0  0  0  0  0  0
  -26.2611   35.9275   20.1058 O   0  0  0  0  0  0  0  0  0  0  0  0
  -26.5522   36.7053   17.5651 N   0  0  0  0  0  0  0  0  0  0  0  0
  -25.7156   37.4801   16.5906 C   0  0  0  0  0  0  0  0  0  0  0  0
  -23.4233   37.4929   19.7228 O   0  0  0  0  0  0  0  0  0  0  0  0
  -26.0876   37.8081   15.1749 C   0  0  0  0  0  0  0  0  0  0  0  0
  -26.9570   38.9952   14.8836 C   0  0  0  0  0  0  0  0  0  0  0  0
  -27.3289   39.3231   13.4680 C   0  0  0  0  0  0  0  0  0  0  0  0
  -26.8314   38.4639   12.3436 C   0  0  0  0  0  0  0  0  0  0  0  0
  -25.9620   37.2768   12.6348 C   0  0  0  0  0  0  0  0  0  0  0  0
  -25.5901   36.9489   14.0504 C   0  0  0  0  0  0  0  0  0  0  0  0
  -27.2034   38.7919   10.9279 N   0  0  0  0  0  0  0  0  0  0  0  0
  -26.1412   39.1891    9.9461 O   0  0  0  0  0  0  0  0  0  0  0  0
  -28.6376   38.7226   10.4940 O   0  0  0  0  0  0  0  0  0  0  0  0
  -23.3162   38.6551   16.6754 C   0  0  0  0  0  0  0  0  0  0  0  0
  -22.0174   37.9778   16.3523 O   0  0  0  0  0  0  0  0  0  0  0  0
  -23.3641   40.0475   13.7243 C   0  0  0  0  0  0  0  0  0  0  0  0
  -23.5114   40.7582   15.0370 C   0  0  0  0  0  0  0  0  0  0  0  0
  -23.4893   40.1182   16.3935 C   0  0  0  0  0  0  0  0  0  0  0  0
  -23.6708   41.1981   17.4185 S   0  0  0  0  0  0  0  0  0  0  0  0
  -23.8050   42.5055   16.6956 C   0  0  0  0  0  0  0  0  0  0  0  0
  -23.7065   42.2337   15.2238 N   0  0  0  0  0  0  0  0  0  0  0  0
  -24.0031   43.8490   17.3328 C   0  0  0  0  0  0  0  0  0  0  0  0
  -27.9076   36.1223   17.2951 C   0  0  0  0  0  0  0  0  0  0  0  0
  -28.0390   34.8872   16.4541 C   0  0  0  0  0  0  0  0  0  0  0  0
  -28.4482   34.9994   15.0154 N   0  0  0  0  0  0  0  0  0  0  0  0
  -28.0085   34.0972   13.9007 C   0  0  0  0  0  0  0  0  0  0  0  0
  -28.6576   34.5738   12.6352 C   0  0  0  0  0  0  0  0  0  0  0  0
  -29.4985   35.7705   12.9678 C   0  0  0  0  0  0  0  0  0  0  0  0
  -29.3691   36.0336   14.4388 C   0  0  0  0  0  0  0  0  0  0  0  0
 19 20  1  0  0  0
 20 21  2  0  0  0
 21 22  1  0  0  0
 22 23  1  0  0  0
 23 24  2  0  0  0
 23 25  1  0  0  0
 21 17  1  0  0  0
 17 18  2  0  0  0
 17  1  1  0  0  0
  1  2  2  0  0  0
  2  3  1  0  0  0
  3  4  2  0  0  0
  3  5  1  0  0  0
  5  6  1  0  0  0
  6  8  1  0  0  0
  8  9  2  0  0  0
  9 10  1  0  0  0
 10 11  2  0  0  0
 11 12  1  0  0  0
 12 13  2  0  0  0
 11 14  1  0  0  0
 14 15  2  0  0  0
 14 16  1  0  0  0
  5 26  1  0  0  0
 26 27  1  0  0  0
 27 28  1  0  0  0
 28 29  1  0  0  0
 29 30  1  0  0  0
 30 31  1  0  0  0
 31 32  1  0  0  0
  2  7  1  0  0  0
 24 20  1  0  0  0
  6  1  1  0  0  0
 13  8  1  0  0  0
 32 28  1  0  0  0
M  CHG 1  14   1
M  CHG 1  16  -1
M  CHG 1  28   1
M  END
> <minimizedAffinity>
-4.78360

$$$$



 32 35  0  0  0  0  0  0  0  0999 V2000
  -28.4528   38.1706   12.3496 N   0  0  0  0  0  0  0  0  0  0  0  0
  -26.9859   38.0884   12.0471 C   0  0  0  0  0  0  0  0  0  0  0  0
  -26.4310   36.8934   12.7641 C   0  0  0  0  0  0  0  0  0  0  0  0
  -27.5549   36.2370   13.5098 C   0  0  0  0  0  0  0  0  0  0  0  0
  -28.8045   37.0265   13.2536 C   0  0  0  0  0  0  0  0  0  0  0  0
  -30.1665   36.7247   13.8047 C   0  0  0  0  0  0  0  0  0  0  0  0
  -26.2101   39.0349   11.1797 C   0  0  0  0  0  0  0  0  0  0  0  0
  -27.4481   35.0073   14.3620 C   0  0  0  0  0  0  0  0  0  0  0  0
  -27.0739   35.1282   15.8096 C   0  0  0  0  0  0  0  0  0  0  0  0
  -26.9671   33.8985   16.6618 C   0  0  0  0  0  0  0  0  0  0  0  0
  -27.2345   32.5479   16.0664 N   0  0  0  0  0  0  0  0  0  0  0  0
  -26.5930   34.0193   18.1093 N   0  0  0  0  0  0  0  0  0  0  0  0
  -26.3256   35.3699   18.7046 C   0  0  0  0  0  0  0  0  0  0  0  0
  -26.4324   36.5997   17.8524 N   0  0  0  0  0  0  0  0  0  0  0  0
  -26.8066   36.4787   16.4048 C   0  0  0  0  0  0  0  0  0  0  0  0
  -26.9134   37.7086   15.5526 O   0  0  0  0  0  0  0  0  0  0  0  0
  -25.9789   35.1784   20.1514 S   0  0  0  0  0  0  0  0  0  0  0  0
  -26.0320   33.7095   20.4502 N   0  0  0  0  0  0  0  0  0  0  0  0
  -26.4115   32.9931   19.1882 C   0  0  0  0  0  0  0  0  0  0  0  0
  -26.5799   31.5107   19.0323 S   0  0  0  0  0  0  0  0  0  0  0  0
  -25.1292   31.3837   18.6729 O   0  0  0  0  0  0  0  0  0  0  0  0
  -28.0307   31.6378   19.3918 O   0  0  0  0  0  0  0  0  0  0  0  0
  -26.7484   30.0284   18.8765 C   0  0  0  0  0  0  0  0  0  0  0  0
  -31.2987   41.3003   10.8148 C   0  0  0  0  0  0  0  0  0  0  0  0
  -30.6723   41.4556   12.1689 C   0  0  0  0  0  0  0  0  0  0  0  0
  -29.7237   40.4123   12.6805 C   0  0  0  0  0  0  0  0  0  0  0  0
  -29.4014   39.2138   11.8380 C   0  0  0  0  0  0  0  0  0  0  0  0
  -30.0278   39.0586   10.4839 C   0  0  0  0  0  0  0  0  0  0  0  0
  -30.9764   40.1018    9.9723 C   0  0  0  0  0  0  0  0  0  0  0  0
  -32.2473   42.3436   10.3032 O   0  0  0  0  0  0  0  0  0  0  0  0
  -31.0259   44.5093    9.5499 C   0  0  0  0  0  0  0  0  0  0  0  0
  -31.9408   43.7984   10.5024 C   0  0  0  0  0  0  0  0  0  0  0  0
 31 32  1  0  0  0
 32 30  1  0  0  0
 30 24  1  0  0  0
 24 25  2  0  0  0
 25 26  1  0  0  0
 26 27  2  0  0  0
 27 28  1  0  0  0
 28 29  2  0  0  0
 27  1  1  0  0  0
  1  2  1  0  0  0
  2  3  2  0  0  0
  3  4  1  0  0  0
  4  5  2  0  0  0
  5  6  1  0  0  0
  4  8  1  0  0  0
  8  9  2  0  0  0
  9 10  1  0  0  0
 10 11  2  0  0  0
 10 12  1  0  0  0
 12 13  1  0  0  0
 13 14  2  0  0  0
 14 15  1  0  0  0
 15 16  2  0  0  0
 13 17  1  0  0  0
 17 18  1  0  0  0
 18 19  2  0  0  0
 19 20  1  0  0  0
 20 21  2  0  0  0
 20 22  2  0  0  0
 20 23  1  0  0  0
  2  7  1  0  0  0
 29 24  1  0  0  0
  5  1  1  0  0  0
 15  9  1  0  0  0
 19 12  1  0  0  0
M  CHG 1  11   1
M  END
> <minimizedAffinity>
-5.05261

$$$$



 30 33  0  0  0  0  0  0  0  0999 V2000
  -28.1224   39.7484   13.1733 C   0  0  0  0  0  0  0  0  0  0  0  0
  -28.1467   38.2485   13.1664 C   0  0  0  0  0  0  0  0  0  0  0  0
  -27.4948   37.4829   14.2794 C   0  0  0  0  0  0  0  0  0  0  0  0
  -26.8187   38.2170   15.3992 N   0  0  0  0  0  0  0  0  0  0  0  0
  -27.5191   35.9831   14.2726 N   0  0  0  0  0  0  0  0  0  0  0  0
  -28.1952   35.2490   13.1528 C   0  0  0  0  0  0  0  0  0  0  0  0
  -28.8471   36.0146   12.0399 N   0  0  0  0  0  0  0  0  0  0  0  0
  -28.8228   37.5145   12.0467 C   0  0  0  0  0  0  0  0  0  0  0  0
  -29.4748   38.2802   10.9337 O   0  0  0  0  0  0  0  0  0  0  0  0
  -28.0595   33.7782   13.4142 S   0  0  0  0  0  0  0  0  0  0  0  0
  -27.2995   33.6033   14.6955 C   0  0  0  0  0  0  0  0  0  0  0  0
  -26.9655   34.9660   15.2261 N   0  0  0  0  0  0  0  0  0  0  0  0
  -27.2934   42.3670   17.6828 C   0  0  0  0  0  0  0  0  0  0  0  0
  -27.0652   41.6861   16.3659 C   0  0  0  0  0  0  0  0  0  0  0  0
  -28.1158   41.0337   15.5170 C   0  0  0  0  0  0  0  0  0  0  0  0
  -27.4463   40.4824   14.2930 C   0  0  0  0  0  0  0  0  0  0  0  0
  -25.9819   40.7942   14.3856 C   0  0  0  0  0  0  0  0  0  0  0  0
  -25.7464   41.5381   15.6666 N   0  0  0  0  0  0  0  0  0  0  0  0
  -24.9367   40.4265   13.3745 C   0  0  0  0  0  0  0  0  0  0  0  0
  -24.4243   42.0450   16.1616 C   0  0  0  0  0  0  0  0  0  0  0  0
  -23.4222   41.0885   16.7368 C   0  0  0  0  0  0  0  0  0  0  0  0
  -22.1000   41.5953   17.2318 C   0  0  0  0  0  0  0  0  0  0  0  0
  -21.7800   43.0586   17.1515 C   0  0  0  0  0  0  0  0  0  0  0  0
  -22.7821   44.0151   16.5762 C   0  0  0  0  0  0  0  0  0  0  0  0
  -24.1043   43.5082   16.0813 C   0  0  0  0  0  0  0  0  0  0  0  0
  -20.4578   43.5655   17.6465 Br  0  0  0  0  0  0  0  0  0  0  0  0
  -26.9371   32.2953   15.3342 S   0  0  0  0  0  0  0  0  0  0  0  0
  -25.8603   32.9791   16.1234 O   0  0  0  0  0  0  0  0  0  0  0  0
  -28.0140   31.6116   14.5449 O   0  0  0  0  0  0  0  0  0  0  0  0
  -26.5747   30.9873   15.9728 C   0  0  0  0  0  0  0  0  0  0  0  0
 13 14  1  0  0  0
 14 15  2  0  0  0
 15 16  1  0  0  0
 16 17  2  0  0  0
 17 18  1  0  0  0
 18 20  1  0  0  0
 20 21  2  0  0  0
 21 22  1  0  0  0
 22 23  2  0  0  0
 23 24  1  0  0  0
 24 25  2  0  0  0
 23 26  1  0  0  0
 17 19  1  0  0  0
 16  1  1  0  0  0
  1  2  2  0  0  0
  2  3  1  0  0  0
  3  4  2  0  0  0
  3  5  1  0  0  0
  5  6  1  0  0  0
  6  7  2  0  0  0
  7  8  1  0  0  0
  8  9  2  0  0  0
  6 10  1  0  0  0
 10 11  1  0  0  0
 11 12  2  0  0  0
 11 27  1  0  0  0
 27 28  2  0  0  0
 27 29  2  0  0  0
 27 30  1  0  0  0
 18 14  1  0  0  0
 25 20  1  0  0  0
  8  2  1  0  0  0
 12  5  1  0  0  0
M  CHG 1   4   1
M  END
> <minimizedAffinity>
-5.21714

$$$$



 38 43  0  0  0  0  0  0  0  0999 V2000
  -18.2807   43.1717   18.8788 C   0  0  0  0  0  0  0  0  0  0  0  0
  -19.4226   42.3877   18.3030 C   0  0  0  0  0  0  0  0  0  0  0  0
  -19.7093   40.9364   18.5509 C   0  0  0  0  0  0  0  0  0  0  0  0
  -20.9421   40.5691   17.7794 C   0  0  0  0  0  0  0  0  0  0  0  0
  -21.4173   41.7935   17.0546 N   0  0  0  0  0  0  0  0  0  0  0  0
  -20.4781   42.9174   17.3782 N   0  0  0  0  0  0  0  0  0  0  0  0
  -21.4727   39.1673   17.8365 O   0  0  0  0  0  0  0  0  0  0  0  0
  -20.7706   38.1327   18.6651 C   0  0  0  0  0  0  0  0  0  0  0  0
  -19.5377   38.5000   19.4366 C   0  0  0  0  0  0  0  0  0  0  0  0
  -18.8355   37.4654   20.2652 C   0  0  0  0  0  0  0  0  0  0  0  0
  -19.3662   36.0636   20.3223 N   0  0  0  0  0  0  0  0  0  0  0  0
  -20.5990   35.6963   19.5508 C   0  0  0  0  0  0  0  0  0  0  0  0
  -21.3012   36.7309   18.7222 N   0  0  0  0  0  0  0  0  0  0  0  0
  -17.6027   37.8327   21.0368 N   0  0  0  0  0  0  0  0  0  0  0  0
  -19.0071   39.9019   19.3795 C   0  0  0  0  0  0  0  0  0  0  0  0
  -22.6204   41.8788   16.1629 C   0  0  0  0  0  0  0  0  0  0  0  0
  -23.5119   43.0838   16.2194 C   0  0  0  0  0  0  0  0  0  0  0  0
  -24.7150   43.1691   15.3275 C   0  0  0  0  0  0  0  0  0  0  0  0
  -25.0266   42.0494   14.3792 C   0  0  0  0  0  0  0  0  0  0  0  0
  -24.1351   40.8444   14.3227 C   0  0  0  0  0  0  0  0  0  0  0  0
  -22.9320   40.7592   15.2146 C   0  0  0  0  0  0  0  0  0  0  0  0
  -17.7743   40.2692   20.1511 C   0  0  0  0  0  0  0  0  0  0  0  0
  -17.8966   40.8426   21.5317 C   0  0  0  0  0  0  0  0  0  0  0  0
  -16.6638   41.2099   22.3032 C   0  0  0  0  0  0  0  0  0  0  0  0
  -15.3087   41.0037   21.6941 C   0  0  0  0  0  0  0  0  0  0  0  0
  -15.1863   40.4303   20.3134 C   0  0  0  0  0  0  0  0  0  0  0  0
  -16.4191   40.0630   19.5419 C   0  0  0  0  0  0  0  0  0  0  0  0
  -13.8311   40.2241   19.7043 O   0  0  0  0  0  0  0  0  0  0  0  0
  -12.9361   39.1351   20.2172 C   0  0  0  0  0  0  0  0  0  0  0  0
  -14.0758   41.3710   22.4657 O   0  0  0  0  0  0  0  0  0  0  0  0
  -13.4097   42.6941   22.2296 C   0  0  0  0  0  0  0  0  0  0  0  0
  -18.6640   35.0290   21.1510 C   0  0  0  0  0  0  0  0  0  0  0  0
  -17.8745   33.9425   20.4830 C   0  0  0  0  0  0  0  0  0  0  0  0
  -16.4011   33.8213   20.7373 C   0  0  0  0  0  0  0  0  0  0  0  0
  -15.6116   32.7348   20.0694 C   0  0  0  0  0  0  0  0  0  0  0  0
  -16.2954   31.7695   19.1472 C   0  0  0  0  0  0  0  0  0  0  0  0
  -17.7687   31.8906   18.8929 C   0  0  0  0  0  0  0  0  0  0  0  0
  -18.5583   32.9771   19.5608 C   0  0  0  0  0  0  0  0  0  0  0  0
  1  2  1  0  0  0
  2  3  1  0  0  0
  3  4  2  0  0  0
  4  5  1  0  0  0
  5  6  1  0  0  0
  5 16  1  0  0  0
 16 17  2  0  0  0
 17 18  1  0  0  0
 18 19  2  0  0  0
 19 20  1  0  0  0
 20 21  2  0  0  0
  4  7  1  0  0  0
  7  8  1  0  0  0
  8  9  2  0  0  0
  9 10  1  0  0  0
 10 11  2  0  0  0
 11 12  1  0  0  0
 12 13  2  0  0  0
 11 32  1  0  0  0
 32 33  1  0  0  0
 33 34  2  0  0  0
 34 35  1  0  0  0
 35 36  2  0  0  0
 36 37  1  0  0  0
 37 38  2  0  0  0
 10 14  1  0  0  0
  9 15  1  0  0  0
 15 22  1  0  0  0
 22 23  2  0  0  0
 23 24  1  0  0  0
 24 25  2  0  0  0
 25 26  1  0  0  0
 26 27  2  0  0  0
 26 28  1  0  0  0
 28 29  1  0  0  0
 25 30  1  0  0  0
 30 31  1  0  0  0
  6  2  2  0  0  0
 15  3  1  0  0  0
 21 16  1  0  0  0
 13  8  1  0  0  0
 38 33  1  0  0  0
 27 22  1  0  0  0
M  CHG 1  11   1
M  END
> <minimizedAffinity>
-6.35042

$$$$



 33 37  0  0  0  0  0  0  0  0999 V2000
  -25.7691   39.1391   13.3754 C   0  0  0  0  0  0  0  0  0  0  0  0
  -24.8220   40.3012   13.3241 C   0  0  0  0  0  0  0  0  0  0  0  0
  -23.6929   40.3926   14.3074 C   0  0  0  0  0  0  0  0  0  0  0  0
  -23.5109   39.3218   15.3420 C   0  0  0  0  0  0  0  0  0  0  0  0
  -24.4579   38.1598   15.3933 C   0  0  0  0  0  0  0  0  0  0  0  0
  -25.5870   38.0684   14.4101 C   0  0  0  0  0  0  0  0  0  0  0  0
  -24.4566   36.9931   16.3362 C   0  0  0  0  0  0  0  0  0  0  0  0
  -23.5078   36.7005   17.4606 N   0  0  0  0  0  0  0  0  0  0  0  0
  -22.3262   37.5021   17.9198 C   0  0  0  0  0  0  0  0  0  0  0  0
  -21.8013   38.7945   17.3681 C   0  0  0  0  0  0  0  0  0  0  0  0
  -22.3286   39.6043   16.2208 O   0  0  0  0  0  0  0  0  0  0  0  0
  -26.8981   39.0478   12.3921 C   0  0  0  0  0  0  0  0  0  0  0  0
  -28.9524   37.5922   13.0336 C   0  0  0  0  0  0  0  0  0  0  0  0
  -30.3663   37.4846   13.5230 C   0  0  0  0  0  0  0  0  0  0  0  0
  -31.0066   36.1367   13.6750 O   0  0  0  0  0  0  0  0  0  0  0  0
  -31.1396   38.7248   13.8603 N   0  0  0  0  0  0  0  0  0  0  0  0
  -30.4991   40.0727   13.7083 C   0  0  0  0  0  0  0  0  0  0  0  0
  -29.0854   40.1803   13.2189 C   0  0  0  0  0  0  0  0  0  0  0  0
  -28.3120   38.9401   12.8815 N   0  0  0  0  0  0  0  0  0  0  0  0
  -27.8054   35.3835   13.7788 C   0  0  0  0  0  0  0  0  0  0  0  0
  -28.1791   36.3521   12.6962 C   0  0  0  0  0  0  0  0  0  0  0  0
  -23.7764   35.4394   18.2271 C   0  0  0  0  0  0  0  0  0  0  0  0
  -24.7315   34.4194   17.6818 C   0  0  0  0  0  0  0  0  0  0  0  0
  -24.2421   33.3644   16.7344 C   0  0  0  0  0  0  0  0  0  0  0  0
  -25.1972   32.3445   16.1891 C   0  0  0  0  0  0  0  0  0  0  0  0
  -26.6419   32.3794   16.5914 C   0  0  0  0  0  0  0  0  0  0  0  0
  -27.1314   33.4343   17.5387 C   0  0  0  0  0  0  0  0  0  0  0  0
  -26.1763   34.4542   18.0840 C   0  0  0  0  0  0  0  0  0  0  0  0
  -27.3440   31.2508   15.8960 O   0  0  0  0  0  0  0  0  0  0  0  0
  -26.3332   30.5185   15.0641 C   0  0  0  0  0  0  0  0  0  0  0  0
  -25.0064   31.1944   15.2453 O   0  0  0  0  0  0  0  0  0  0  0  0
  -28.5760   33.4692   17.9409 O   0  0  0  0  0  0  0  0  0  0  0  0
  -29.0186   34.3492   19.0721 C   0  0  0  0  0  0  0  0  0  0  0  0
 20 21  1  0  0  0
 13 21  1  0  0  0
 13 14  1  0  0  0
 14 15  2  0  0  0
 14 16  1  0  0  0
 16 17  1  0  0  0
 17 18  1  0  0  0
 18 19  1  0  0  0
 19 12  1  0  0  0
 12  1  1  0  0  0
  1  2  2  0  0  0
  2  3  1  0  0  0
  3  4  2  0  0  0
  4  5  1  0  0  0
  5  6  2  0  0  0
  5  7  1  0  0  0
  7  8  1  0  0  0
  8  9  1  0  0  0
  9 10  1  0  0  0
 10 11  1  0  0  0
  8 22  1  0  0  0
 22 23  1  0  0  0
 23 24  2  0  0  0
 24 25  1  0  0  0
 25 26  2  0  0  0
 26 27  1  0  0  0
 27 28  2  0  0  0
 27 32  1  0  0  0
 32 33  1  0  0  0
 26 29  1  0  0  0
 29 30  1  0  0  0
 30 31  1  0  0  0
 19 13  1  0  0  0
  6  1  1  0  0  0
 11  4  1  0  0  0
 28 23  1  0  0  0
 31 25  1  0  0  0
M  CHG 1  19   1
M  END
> <minimizedAffinity>
-6.22438

$$$$



 32 35  0  0  0  0  0  0  0  0999 V2000
  -25.8642   37.7398   14.4302 N   0  0  0  0  0  0  0  0  0  0  0  0
  -25.4183   38.1208   13.0496 C   0  0  0  0  0  0  0  0  0  0  0  0
  -25.0735   37.1710   11.9409 O   0  0  0  0  0  0  0  0  0  0  0  0
  -25.3777   39.6182   12.9722 C   0  0  0  0  0  0  0  0  0  0  0  0
  -25.7985   40.1628   14.3050 C   0  0  0  0  0  0  0  0  0  0  0  0
  -26.0991   39.0018   15.2061 C   0  0  0  0  0  0  0  0  0  0  0  0
  -26.5548   39.0879   16.6326 O   0  0  0  0  0  0  0  0  0  0  0  0
  -26.4024   33.5470   15.9733 C   0  0  0  0  0  0  0  0  0  0  0  0
  -27.3726   34.1101   14.9775 C   0  0  0  0  0  0  0  0  0  0  0  0
  -27.1932   35.5077   14.4632 C   0  0  0  0  0  0  0  0  0  0  0  0
  -26.0436   36.3422   14.9445 C   0  0  0  0  0  0  0  0  0  0  0  0
  -25.0733   35.7792   15.9403 C   0  0  0  0  0  0  0  0  0  0  0  0
  -25.2527   34.3816   16.4546 C   0  0  0  0  0  0  0  0  0  0  0  0
  -26.5818   32.1495   16.4876 C   0  0  0  0  0  0  0  0  0  0  0  0
  -27.6361   31.8575   17.5138 O   0  0  0  0  0  0  0  0  0  0  0  0
  -25.7068   31.0438   15.9759 O   0  0  0  0  0  0  0  0  0  0  0  0
  -27.4871   30.3414   14.2188 C   0  0  0  0  0  0  0  0  0  0  0  0
  -26.2643   30.0240   15.0276 C   0  0  0  0  0  0  0  0  0  0  0  0
  -25.9007   41.6135   14.6723 N   0  0  0  0  0  0  0  0  0  0  0  0
  -24.9096   42.2184   15.6220 C   0  0  0  0  0  0  0  0  0  0  0  0
  -23.4511   41.8929   15.4918 C   0  0  0  0  0  0  0  0  0  0  0  0
  -22.4600   42.4978   16.4413 C   0  0  0  0  0  0  0  0  0  0  0  0
  -22.9273   43.4282   17.5211 N   0  0  0  0  0  0  0  0  0  0  0  0
  -24.3857   43.7537   17.6513 C   0  0  0  0  0  0  0  0  0  0  0  0
  -25.3769   43.1488   16.7017 C   0  0  0  0  0  0  0  0  0  0  0  0
  -21.9362   44.0331   18.4707 C   0  0  0  0  0  0  0  0  0  0  0  0
  -22.4034   44.9635   19.5505 O   0  0  0  0  0  0  0  0  0  0  0  0
  -20.4777   43.7076   18.3405 C   0  0  0  0  0  0  0  0  0  0  0  0
  -19.7749   42.5415   18.9701 C   0  0  0  0  0  0  0  0  0  0  0  0
  -18.3288   42.6043   18.5766 C   0  0  0  0  0  0  0  0  0  0  0  0
  -18.1378   43.8091   17.7037 C   0  0  0  0  0  0  0  0  0  0  0  0
  -19.4660   44.4910   17.5578 S   0  0  0  0  0  0  0  0  0  0  0  0
 17 18  1  0  0  0
 18 16  1  0  0  0
 16 14  1  0  0  0
 14 15  2  0  0  0
 14  8  1  0  0  0
  8  9  2  0  0  0
  9 10  1  0  0  0
 10 11  2  0  0  0
 11 12  1  0  0  0
 12 13  2  0  0  0
 11  1  1  0  0  0
  1  2  1  0  0  0
  2  3  2  0  0  0
  2  4  1  0  0  0
  4  5  1  0  0  0
  5  6  1  0  0  0
  6  7  2  0  0  0
  5 19  1  0  0  0
 19 20  1  0  0  0
 20 21  1  0  0  0
 21 22  1  0  0  0
 22 23  1  0  0  0
 23 24  1  0  0  0
 24 25  1  0  0  0
 23 26  1  0  0  0
 26 27  2  0  0  0
 26 28  1  0  0  0
 28 29  2  0  0  0
 29 30  1  0  0  0
 30 31  2  0  0  0
 31 32  1  0  0  0
 13  8  1  0  0  0
  6  1  1  0  0  0
 25 20  1  0  0  0
 32 28  1  0  0  0
M  CHG 1  19   1
M  END
> <minimizedAffinity>
-5.98608

$$$$



 35 40  0  0  0  0  0  0  0  0999 V2000
  -27.0479   41.5085   16.1050 S   0  0  0  0  0  0  0  0  0  0  0  0
  -26.0072   40.8243   16.9408 C   0  0  0  0  0  0  0  0  0  0  0  0
  -25.9771   40.7679   18.4395 N   0  0  0  0  0  0  0  0  0  0  0  0
  -24.7651   39.9851   18.8497 N   0  0  0  0  0  0  0  0  0  0  0  0
  -24.0461   39.5576   17.6045 C   0  0  0  0  0  0  0  0  0  0  0  0
  -24.8138   40.0762   16.4249 N   0  0  0  0  0  0  0  0  0  0  0  0
  -22.7816   38.7528   17.5489 C   0  0  0  0  0  0  0  0  0  0  0  0
  -22.6864   37.2761   17.3032 C   0  0  0  0  0  0  0  0  0  0  0  0
  -23.7330   36.2300   17.0573 C   0  0  0  0  0  0  0  0  0  0  0  0
  -23.3292   34.8019   16.8398 C   0  0  0  0  0  0  0  0  0  0  0  0
  -21.8790   34.4198   16.8683 C   0  0  0  0  0  0  0  0  0  0  0  0
  -20.8325   35.4658   17.1142 C   0  0  0  0  0  0  0  0  0  0  0  0
  -21.2362   36.8940   17.3317 C   0  0  0  0  0  0  0  0  0  0  0  0
  -20.4351   38.1345   17.5949 N   0  0  0  0  0  0  0  0  0  0  0  0
  -21.3902   39.2833   17.7292 C   0  0  0  0  0  0  0  0  0  0  0  0
  -24.4516   39.8811   14.9824 C   0  0  0  0  0  0  0  0  0  0  0  0
  -24.0649   40.4540   13.6511 C   0  0  0  0  0  0  0  0  0  0  0  0
  -24.2111   38.9702   13.8151 C   0  0  0  0  0  0  0  0  0  0  0  0
  -29.6105   41.0981   15.9837 C   0  0  0  0  0  0  0  0  0  0  0  0
  -28.2152   40.7297   15.5748 C   0  0  0  0  0  0  0  0  0  0  0  0
  -27.9870   39.5824   14.6358 C   0  0  0  0  0  0  0  0  0  0  0  0
  -27.9747   39.8168   13.1542 O   0  0  0  0  0  0  0  0  0  0  0  0
  -27.7711   38.2008   15.1783 N   0  0  0  0  0  0  0  0  0  0  0  0
  -27.5428   37.0534   14.2392 C   0  0  0  0  0  0  0  0  0  0  0  0
  -27.3269   35.6717   14.7818 C   0  0  0  0  0  0  0  0  0  0  0  0
  -27.3392   35.4374   16.2633 N   0  0  0  0  0  0  0  0  0  0  0  0
  -27.5675   36.5846   17.2023 C   0  0  0  0  0  0  0  0  0  0  0  0
  -27.7834   37.9663   16.6598 C   0  0  0  0  0  0  0  0  0  0  0  0
  -27.1233   34.0557   16.8059 C   0  0  0  0  0  0  0  0  0  0  0  0
  -27.1356   33.8212   18.2873 O   0  0  0  0  0  0  0  0  0  0  0  0
  -26.8951   32.9084   15.8669 C   0  0  0  0  0  0  0  0  0  0  0  0
  -25.6883   32.0179   15.8397 C   0  0  0  0  0  0  0  0  0  0  0  0
  -25.8809   31.0094   14.7462 C   0  0  0  0  0  0  0  0  0  0  0  0
  -27.2068   31.2766   14.0975 C   0  0  0  0  0  0  0  0  0  0  0  0
  -27.8335   32.4502   14.7901 O   0  0  0  0  0  0  0  0  0  0  0  0
 20 19  1  0  0  0
 20 21  1  0  0  0
 21 22  2  0  0  0
 21 23  1  0  0  0
 23 24  1  0  0  0
 24 25  1  0  0  0
 25 26  1  0  0  0
 26 27  1  0  0  0
 27 28  1  0  0  0
 26 29  1  0  0  0
 29 30  2  0  0  0
 29 31  1  0  0  0
 31 32  2  0  0  0
 32 33  1  0  0  0
 33 34  2  0  0  0
 34 35  1  0  0  0
 20  1  1  0  0  0
  2  1  1  0  0  0
  2  3  1  0  0  0
  3  4  1  0  0  0
  4  5  2  0  0  0
  5  6  1  0  0  0
  6 16  1  0  0  0
 16 17  1  0  0  0
 17 18  1  0  0  0
  5  7  1  0  0  0
  7  8  2  0  0  0
  8  9  1  0  0  0
  9 10  2  0  0  0
 10 11  1  0  0  0
 11 12  2  0  0  0
 12 13  1  0  0  0
 13 14  2  0  0  0
 14 15  1  0  0  0
 28 23  1  0  0  0
 35 31  1  0  0  0
  6  2  1  0  0  0
 18 16  1  0  0  0
 15  7  1  0  0  0
 13  8  1  0  0  0
M  CHG 1  14   1
M  END
> <minimizedAffinity>
-5.31059

$$$$



 35 40  0  0  0  0  0  0  0  0999 V2000
  -27.0479   41.5085   16.1050 S   0  0  0  0  0  0  0  0  0  0  0  0
  -26.0072   40.8243   16.9408 C   0  0  0  0  0  0  0  0  0  0  0  0
  -25.9771   40.7679   18.4395 N   0  0  0  0  0  0  0  0  0  0  0  0
  -24.7651   39.9851   18.8497 N   0  0  0  0  0  0  0  0  0  0  0  0
  -24.0461   39.5576   17.6045 C   0  0  0  0  0  0  0  0  0  0  0  0
  -24.8138   40.0762   16.4249 N   0  0  0  0  0  0  0  0  0  0  0  0
  -22.7816   38.7528   17.5489 C   0  0  0  0  0  0  0  0  0  0  0  0
  -22.6864   37.2761   17.3032 C   0  0  0  0  0  0  0  0  0  0  0  0
  -23.7330   36.2300   17.0573 C   0  0  0  0  0  0  0  0  0  0  0  0
  -23.3292   34.8019   16.8398 C   0  0  0  0  0  0  0  0  0  0  0  0
  -21.8790   34.4198   16.8683 C   0  0  0  0  0  0  0  0  0  0  0  0
  -20.8325   35.4658   17.1142 C   0  0  0  0  0  0  0  0  0  0  0  0
  -21.2362   36.8940   17.3317 C   0  0  0  0  0  0  0  0  0  0  0  0
  -20.4351   38.1345   17.5949 N   0  0  0  0  0  0  0  0  0  0  0  0
  -21.3902   39.2833   17.7292 C   0  0  0  0  0  0  0  0  0  0  0  0
  -24.4516   39.8811   14.9824 C   0  0  0  0  0  0  0  0  0  0  0  0
  -24.0649   40.4540   13.6511 C   0  0  0  0  0  0  0  0  0  0  0  0
  -24.2111   38.9702   13.8151 C   0  0  0  0  0  0  0  0  0  0  0  0
  -29.6105   41.0981   15.9837 C   0  0  0  0  0  0  0  0  0  0  0  0
  -28.2152   40.7297   15.5748 C   0  0  0  0  0  0  0  0  0  0  0  0
  -27.9870   39.5824   14.6358 C   0  0  0  0  0  0  0  0  0  0  0  0
  -27.9747   39.8168   13.1542 O   0  0  0  0  0  0  0  0  0  0  0  0
  -27.7711   38.2008   15.1783 N   0  0  0  0  0  0  0  0  0  0  0  0
  -27.5428   37.0534   14.2392 C   0  0  0  0  0  0  0  0  0  0  0  0
  -27.3269   35.6717   14.7818 C   0  0  0  0  0  0  0  0  0  0  0  0
  -27.3392   35.4374   16.2633 N   0  0  0  0  0  0  0  0  0  0  0  0
  -27.5675   36.5846   17.2023 C   0  0  0  0  0  0  0  0  0  0  0  0
  -27.7834   37.9663   16.6598 C   0  0  0  0  0  0  0  0  0  0  0  0
  -27.1233   34.0557   16.8059 C   0  0  0  0  0  0  0  0  0  0  0  0
  -27.1356   33.8212   18.2873 O   0  0  0  0  0  0  0  0  0  0  0  0
  -26.8951   32.9084   15.8669 C   0  0  0  0  0  0  0  0  0  0  0  0
  -25.6883   32.0179   15.8397 C   0  0  0  0  0  0  0  0  0  0  0  0
  -25.8809   31.0094   14.7462 C   0  0  0  0  0  0  0  0  0  0  0  0
  -27.2068   31.2766   14.0975 C   0  0  0  0  0  0  0  0  0  0  0  0
  -27.8335   32.4502   14.7901 O   0  0  0  0  0  0  0  0  0  0  0  0
 20 19  1  0  0  0
 20 21  1  0  0  0
 21 22  2  0  0  0
 21 23  1  0  0  0
 23 24  1  0  0  0
 24 25  1  0  0  0
 25 26  1  0  0  0
 26 27  1  0  0  0
 27 28  1  0  0  0
 26 29  1  0  0  0
 29 30  2  0  0  0
 29 31  1  0  0  0
 31 32  2  0  0  0
 32 33  1  0  0  0
 33 34  2  0  0  0
 34 35  1  0  0  0
 20  1  1  0  0  0
  2  1  1  0  0  0
  2  3  1  0  0  0
  3  4  1  0  0  0
  4  5  2  0  0  0
  5  6  1  0  0  0
  6 16  1  0  0  0
 16 17  1  0  0  0
 17 18  1  0  0  0
  5  7  1  0  0  0
  7  8  2  0  0  0
  8  9  1  0  0  0
  9 10  2  0  0  0
 10 11  1  0  0  0
 11 12  2  0  0  0
 12 13  1  0  0  0
 13 14  2  0  0  0
 14 15  1  0  0  0
 28 23  1  0  0  0
 35 31  1  0  0  0
  6  2  1  0  0  0
 18 16  1  0  0  0
 15  7  1  0  0  0
 13  8  1  0  0  0
M  CHG 1  14   1
M  END
> <minimizedAffinity>
-5.31059

$$$$



 33 37  0  0  0  0  0  0  0  0999 V2000
  -29.3622   35.6602   15.7548 C   0  0  0  0  0  0  0  0  0  0  0  0
  -28.7487   36.7021   14.8670 N   0  0  0  0  0  0  0  0  0  0  0  0
  -27.3243   37.1226   15.0775 C   0  0  0  0  0  0  0  0  0  0  0  0
  -26.7109   38.1645   14.1897 C   0  0  0  0  0  0  0  0  0  0  0  0
  -27.5218   38.7857   13.0913 C   0  0  0  0  0  0  0  0  0  0  0  0
  -26.9083   39.8276   12.2034 O   0  0  0  0  0  0  0  0  0  0  0  0
  -28.9461   38.3652   12.8807 N   0  0  0  0  0  0  0  0  0  0  0  0
  -29.5596   37.3234   13.7685 C   0  0  0  0  0  0  0  0  0  0  0  0
  -30.9840   36.9029   13.5579 O   0  0  0  0  0  0  0  0  0  0  0  0
  -29.7570   38.9865   11.7823 C   0  0  0  0  0  0  0  0  0  0  0  0
  -25.2939   38.3762   14.6341 N   0  0  0  0  0  0  0  0  0  0  0  0
  -25.0317   37.4652   15.7965 C   0  0  0  0  0  0  0  0  0  0  0  0
  -26.2866   36.6905   16.0706 N   0  0  0  0  0  0  0  0  0  0  0  0
  -23.7412   37.3493   16.5523 N   0  0  0  0  0  0  0  0  0  0  0  0
  -23.5419   38.1264   17.8197 C   0  0  0  0  0  0  0  0  0  0  0  0
  -24.7280   38.6610   18.5662 C   0  0  0  0  0  0  0  0  0  0  0  0
  -24.9076   40.1414   18.7278 C   0  0  0  0  0  0  0  0  0  0  0  0
  -25.9719   40.9764   18.0796 C   0  0  0  0  0  0  0  0  0  0  0  0
  -27.0938   40.6260   17.1475 C   0  0  0  0  0  0  0  0  0  0  0  0
  -28.0202   41.6971   16.6529 C   0  0  0  0  0  0  0  0  0  0  0  0
  -27.8248   43.1185   17.0904 C   0  0  0  0  0  0  0  0  0  0  0  0
  -26.7030   43.4689   18.0224 C   0  0  0  0  0  0  0  0  0  0  0  0
  -25.7765   42.3978   18.5170 C   0  0  0  0  0  0  0  0  0  0  0  0
  -24.5914   42.4413   19.4356 N   0  0  0  0  0  0  0  0  0  0  0  0
  -24.0544   41.0468   19.5658 C   0  0  0  0  0  0  0  0  0  0  0  0
  -24.3117   39.3312   14.0232 C   0  0  0  0  0  0  0  0  0  0  0  0
  -24.0574   40.6609   14.6693 C   0  0  0  0  0  0  0  0  0  0  0  0
  -22.8598   40.8487   15.5527 C   0  0  0  0  0  0  0  0  0  0  0  0
  -22.6055   42.1783   16.1987 C   0  0  0  0  0  0  0  0  0  0  0  0
  -23.5488   43.3201   15.9613 C   0  0  0  0  0  0  0  0  0  0  0  0
  -24.7464   43.1323   15.0778 C   0  0  0  0  0  0  0  0  0  0  0  0
  -25.0006   41.8026   14.4318 C   0  0  0  0  0  0  0  0  0  0  0  0
  -23.2944   44.6498   16.6073 F   0  0  0  0  0  0  0  0  0  0  0  0
  1  2  1  0  0  0
  3  2  1  0  0  0
  3  4  1  0  0  0
  4  5  1  0  0  0
  5  6  2  0  0  0
  5  7  1  0  0  0
  7  8  1  0  0  0
  8  9  2  0  0  0
  7 10  1  0  0  0
  4 11  1  0  0  0
 11 12  1  0  0  0
 12 13  2  0  0  0
 12 14  1  0  0  0
 14 15  1  0  0  0
 15 16  1  0  0  0
 16 17  1  0  0  0
 17 18  2  0  0  0
 18 19  1  0  0  0
 19 20  2  0  0  0
 20 21  1  0  0  0
 21 22  2  0  0  0
 22 23  1  0  0  0
 23 24  2  0  0  0
 24 25  1  0  0  0
 11 26  1  0  0  0
 26 27  1  0  0  0
 27 28  2  0  0  0
 28 29  1  0  0  0
 29 30  2  0  0  0
 30 31  1  0  0  0
 31 32  2  0  0  0
 30 33  1  0  0  0
  8  2  1  0  0  0
 13  3  1  0  0  0
 25 17  1  0  0  0
 23 18  1  0  0  0
 32 27  1  0  0  0
M  CHG 1  24   1
M  END
> <minimizedAffinity>
-4.44626

$$$$



 32 35  0  0  0  0  0  0  0  0999 V2000
  -24.1883   39.6142   16.7800 C   0  0  0  0  0  0  0  0  0  0  0  0
  -22.8791   40.1226   17.3067 N   0  0  0  0  0  0  0  0  0  0  0  0
  -21.7998   39.1554   17.6934 C   0  0  0  0  0  0  0  0  0  0  0  0
  -22.0297   37.6797   17.5534 C   0  0  0  0  0  0  0  0  0  0  0  0
  -20.7892   36.9717   18.0117 C   0  0  0  0  0  0  0  0  0  0  0  0
  -19.7926   38.0099   18.4349 N   0  0  0  0  0  0  0  0  0  0  0  0
  -20.4172   39.3594   18.2382 N   0  0  0  0  0  0  0  0  0  0  0  0
  -20.5818   35.4864   18.0415 C   0  0  0  0  0  0  0  0  0  0  0  0
  -23.3389   37.1713   17.0268 C   0  0  0  0  0  0  0  0  0  0  0  0
  -23.5690   35.6956   16.8868 N   0  0  0  0  0  0  0  0  0  0  0  0
  -24.4182   38.1386   16.6401 N   0  0  0  0  0  0  0  0  0  0  0  0
  -25.7276   37.6302   16.1134 C   0  0  0  0  0  0  0  0  0  0  0  0
  -26.9742   37.7772   16.9345 C   0  0  0  0  0  0  0  0  0  0  0  0
  -28.2835   37.2688   16.4079 C   0  0  0  0  0  0  0  0  0  0  0  0
  -28.3461   36.6134   15.0601 C   0  0  0  0  0  0  0  0  0  0  0  0
  -27.0994   36.4665   14.2389 C   0  0  0  0  0  0  0  0  0  0  0  0
  -25.7902   36.9749   14.7656 C   0  0  0  0  0  0  0  0  0  0  0  0
  -29.6553   36.1050   14.5333 O   0  0  0  0  0  0  0  0  0  0  0  0
  -29.6903   35.2799   13.2811 C   0  0  0  0  0  0  0  0  0  0  0  0
  -30.5008   34.0185   13.2365 C   0  0  0  0  0  0  0  0  0  0  0  0
  -25.2676   40.5815   16.3933 S   0  0  0  0  0  0  0  0  0  0  0  0
  -25.1732   41.3321   15.0982 C   0  0  0  0  0  0  0  0  0  0  0  0
  -25.1188   40.5834   13.7996 C   0  0  0  0  0  0  0  0  0  0  0  0
  -23.8011   40.3546   13.1204 O   0  0  0  0  0  0  0  0  0  0  0  0
  -26.3821   40.0633   13.1801 N   0  0  0  0  0  0  0  0  0  0  0  0
  -26.3277   39.3145   11.8815 C   0  0  0  0  0  0  0  0  0  0  0  0
  -27.5909   38.7945   11.2621 C   0  0  0  0  0  0  0  0  0  0  0  0
  -28.9087   39.0232   11.9413 O   0  0  0  0  0  0  0  0  0  0  0  0
  -28.9631   39.7720   13.2399 C   0  0  0  0  0  0  0  0  0  0  0  0
  -27.6998   40.2920   13.8593 C   0  0  0  0  0  0  0  0  0  0  0  0
  -24.0051   43.5504   15.7801 C   0  0  0  0  0  0  0  0  0  0  0  0
  -25.1332   42.8317   15.1015 C   0  0  0  0  0  0  0  0  0  0  0  0
 31 32  1  0  0  0
 22 32  1  0  0  0
 22 23  1  0  0  0
 23 24  2  0  0  0
 23 25  1  0  0  0
 25 26  1  0  0  0
 26 27  1  0  0  0
 27 28  1  0  0  0
 28 29  1  0  0  0
 29 30  1  0  0  0
 22 21  1  0  0  0
  1 21  1  0  0  0
  1  2  1  0  0  0
  2  3  2  0  0  0
  3  4  1  0  0  0
  4  5  2  0  0  0
  5  6  1  0  0  0
  6  7  2  0  0  0
  5  8  1  0  0  0
  4  9  1  0  0  0
  9 10  2  0  0  0
  9 11  1  0  0  0
 11 12  1  0  0  0
 12 13  2  0  0  0
 13 14  1  0  0  0
 14 15  2  0  0  0
 15 16  1  0  0  0
 16 17  2  0  0  0
 15 18  1  0  0  0
 18 19  1  0  0  0
 19 20  1  0  0  0
 30 25  1  0  0  0
 11  1  1  0  0  0
  7  3  1  0  0  0
 17 12  1  0  0  0
M  CHG 1  10   1
M  END
> <minimizedAffinity>
-4.84771

$$$$



 31 34  0  0  0  0  0  0  0  0999 V2000
  -29.2861   38.7215   12.2391 C   0  0  0  0  0  0  0  0  0  0  0  0
  -29.0170   38.0700   10.9151 O   0  0  0  0  0  0  0  0  0  0  0  0
  -28.1811   39.4307   12.9644 N   0  0  0  0  0  0  0  0  0  0  0  0
  -28.4502   40.0822   14.2885 C   0  0  0  0  0  0  0  0  0  0  0  0
  -27.3451   40.7913   15.0137 C   0  0  0  0  0  0  0  0  0  0  0  0
  -25.9710   40.8490   14.4150 N   0  0  0  0  0  0  0  0  0  0  0  0
  -25.7019   40.1975   13.0909 C   0  0  0  0  0  0  0  0  0  0  0  0
  -26.8070   39.4883   12.3656 C   0  0  0  0  0  0  0  0  0  0  0  0
  -24.8660   41.5581   15.1403 S   0  0  0  0  0  0  0  0  0  0  0  0
  -25.0874   42.7734   14.2892 O   0  0  0  0  0  0  0  0  0  0  0  0
  -24.6447   40.3429   15.9913 O   0  0  0  0  0  0  0  0  0  0  0  0
  -23.7611   42.2674   15.8655 C   0  0  0  0  0  0  0  0  0  0  0  0
  -23.7791   43.6973   16.3182 C   0  0  0  0  0  0  0  0  0  0  0  0
  -22.4732   43.9849   16.9979 C   0  0  0  0  0  0  0  0  0  0  0  0
  -21.6481   42.7326   16.9654 C   0  0  0  0  0  0  0  0  0  0  0  0
  -22.4441   41.6711   16.2655 S   0  0  0  0  0  0  0  0  0  0  0  0
  -30.6602   38.6639   12.8379 C   0  0  0  0  0  0  0  0  0  0  0  0
  -30.6029   35.6754   15.4486 C   0  0  0  0  0  0  0  0  0  0  0  0
  -30.3613   36.4725   14.2011 C   0  0  0  0  0  0  0  0  0  0  0  0
  -29.5791   35.8751   13.0691 O   0  0  0  0  0  0  0  0  0  0  0  0
  -30.9018   37.8669   14.0855 N   0  0  0  0  0  0  0  0  0  0  0  0
  -31.7926   39.4033   12.1891 C   0  0  0  0  0  0  0  0  0  0  0  0
  -31.5076   40.5450   11.2589 C   0  0  0  0  0  0  0  0  0  0  0  0
  -31.3879   40.4572    9.7662 C   0  0  0  0  0  0  0  0  0  0  0  0
  -31.5050   39.3024    8.8161 C   0  0  0  0  0  0  0  0  0  0  0  0
  -31.3328   39.5232    7.3424 C   0  0  0  0  0  0  0  0  0  0  0  0
  -31.0435   40.8988    6.8189 C   0  0  0  0  0  0  0  0  0  0  0  0
  -30.9264   42.0536    7.7691 C   0  0  0  0  0  0  0  0  0  0  0  0
  -31.0986   41.8328    9.2427 C   0  0  0  0  0  0  0  0  0  0  0  0
  -31.0395   42.7707   10.4118 N   0  0  0  0  0  0  0  0  0  0  0  0
  -31.2922   41.9747   11.6578 C   0  0  0  0  0  0  0  0  0  0  0  0
 18 19  1  0  0  0
 19 20  2  0  0  0
 19 21  1  0  0  0
 21 17  1  0  0  0
 17 22  1  0  0  0
 22 23  1  0  0  0
 23 24  2  0  0  0
 24 25  1  0  0  0
 25 26  2  0  0  0
 26 27  1  0  0  0
 27 28  2  0  0  0
 28 29  1  0  0  0
 29 30  2  0  0  0
 30 31  1  0  0  0
 17  1  1  0  0  0
  1  2  2  0  0  0
  1  3  1  0  0  0
  3  4  1  0  0  0
  4  5  1  0  0  0
  5  6  1  0  0  0
  6  7  1  0  0  0
  7  8  1  0  0  0
  6  9  1  0  0  0
  9 10  2  0  0  0
  9 11  2  0  0  0
  9 12  1  0  0  0
 12 13  2  0  0  0
 13 14  1  0  0  0
 14 15  2  0  0  0
 15 16  1  0  0  0
 31 23  1  0  0  0
 29 24  1  0  0  0
  8  3  1  0  0  0
 16 12  1  0  0  0
M  CHG 1  30   1
M  END
> <minimizedAffinity>
-5.90814

$$$$



 33 37  0  0  0  0  0  0  0  0999 V2000
  -29.7240   38.4985   17.9125 N   0  0  0  0  0  0  0  0  0  0  0  0
  -29.6500   39.4412   16.7482 C   0  0  0  0  0  0  0  0  0  0  0  0
  -30.7544   39.7284   15.7747 O   0  0  0  0  0  0  0  0  0  0  0  0
  -28.2776   40.0465   16.7285 C   0  0  0  0  0  0  0  0  0  0  0  0
  -27.5035   39.4777   17.8805 N   0  0  0  0  0  0  0  0  0  0  0  0
  -28.3975   38.5210   18.6123 C   0  0  0  0  0  0  0  0  0  0  0  0
  -28.0294   37.7263   19.8301 O   0  0  0  0  0  0  0  0  0  0  0  0
  -30.9154   37.6773   18.3077 C   0  0  0  0  0  0  0  0  0  0  0  0
  -30.9951   36.2326   17.9120 C   0  0  0  0  0  0  0  0  0  0  0  0
  -31.8913   35.2964   18.6674 O   0  0  0  0  0  0  0  0  0  0  0  0
  -29.3739   35.1086   13.0142 C   0  0  0  0  0  0  0  0  0  0  0  0
  -29.4335   35.2074   14.5097 C   0  0  0  0  0  0  0  0  0  0  0  0
  -30.5259   35.8554   15.3076 C   0  0  0  0  0  0  0  0  0  0  0  0
  -30.1787   35.7240   16.7609 C   0  0  0  0  0  0  0  0  0  0  0  0
  -28.8717   34.9949   16.8613 C   0  0  0  0  0  0  0  0  0  0  0  0
  -28.4111   34.6756   15.4699 N   0  0  0  0  0  0  0  0  0  0  0  0
  -28.1516   34.6463   18.1301 C   0  0  0  0  0  0  0  0  0  0  0  0
  -27.1496   33.9516   15.1031 C   0  0  0  0  0  0  0  0  0  0  0  0
  -27.1807   32.4744   14.8449 C   0  0  0  0  0  0  0  0  0  0  0  0
  -26.1871   31.4701   15.3491 C   0  0  0  0  0  0  0  0  0  0  0  0
  -26.6031   30.1170   14.8529 C   0  0  0  0  0  0  0  0  0  0  0  0
  -27.8538   30.2851   14.0421 C   0  0  0  0  0  0  0  0  0  0  0  0
  -28.2108   31.7420   14.0371 O   0  0  0  0  0  0  0  0  0  0  0  0
  -27.7687   41.0452   15.7315 C   0  0  0  0  0  0  0  0  0  0  0  0
  -26.9739   40.5835   14.5462 C   0  0  0  0  0  0  0  0  0  0  0  0
  -27.5229   39.9022   13.3278 C   0  0  0  0  0  0  0  0  0  0  0  0
  -28.9167   39.5026   12.9436 C   0  0  0  0  0  0  0  0  0  0  0  0
  -29.1664   38.8205   11.6312 C   0  0  0  0  0  0  0  0  0  0  0  0
  -28.0224   38.5379   10.7031 C   0  0  0  0  0  0  0  0  0  0  0  0
  -26.6286   38.9374   11.0874 C   0  0  0  0  0  0  0  0  0  0  0  0
  -26.3789   39.6196   12.3997 C   0  0  0  0  0  0  0  0  0  0  0  0
  -25.1229   40.1262   13.0445 N   0  0  0  0  0  0  0  0  0  0  0  0
  -25.4906   40.7220   14.3711 C   0  0  0  0  0  0  0  0  0  0  0  0
 12 11  1  0  0  0
 12 13  1  0  0  0
 13 14  1  0  0  0
 14 15  2  0  0  0
 15 16  1  0  0  0
 16 18  1  0  0  0
 18 19  1  0  0  0
 19 20  2  0  0  0
 20 21  1  0  0  0
 21 22  2  0  0  0
 22 23  1  0  0  0
 15 17  1  0  0  0
 14  9  1  0  0  0
  9 10  2  0  0  0
  9  8  1  0  0  0
  8  1  1  0  0  0
  1  2  1  0  0  0
  2  3  2  0  0  0
  2  4  1  0  0  0
  4  5  1  0  0  0
  5  6  1  0  0  0
  6  7  2  0  0  0
  4 24  1  0  0  0
 24 25  1  0  0  0
 25 26  2  0  0  0
 26 27  1  0  0  0
 27 28  2  0  0  0
 28 29  1  0  0  0
 29 30  2  0  0  0
 30 31  1  0  0  0
 31 32  2  0  0  0
 32 33  1  0  0  0
 16 12  1  0  0  0
 23 19  1  0  0  0
  6  1  1  0  0  0
 33 25  1  0  0  0
 31 26  1  0  0  0
M  CHG 1  32   1
M  END
> <minimizedAffinity>
-6.31199

$$$$



 32 35  0  0  0  0  0  0  0  0999 V2000
  -23.7085   43.7629   16.4679 C   0  0  0  0  0  0  0  0  0  0  0  0
  -22.5108   43.0762   17.0543 S   0  0  0  0  0  0  0  0  0  0  0  0
  -22.6525   43.8952   18.3029 O   0  0  0  0  0  0  0  0  0  0  0  0
  -22.3692   42.2571   15.8057 O   0  0  0  0  0  0  0  0  0  0  0  0
  -17.1971   39.2318   19.8141 C   0  0  0  0  0  0  0  0  0  0  0  0
  -17.5926   40.6155   19.3911 N   0  0  0  0  0  0  0  0  0  0  0  0
  -18.9178   41.0159   18.8135 C   0  0  0  0  0  0  0  0  0  0  0  0
  -20.1566   40.2290   18.5038 C   0  0  0  0  0  0  0  0  0  0  0  0
  -21.3543   40.9157   17.9174 C   0  0  0  0  0  0  0  0  0  0  0  0
  -21.3131   42.3894   17.6407 C   0  0  0  0  0  0  0  0  0  0  0  0
  -20.0743   43.1763   17.9505 C   0  0  0  0  0  0  0  0  0  0  0  0
  -18.8766   42.4896   18.5369 C   0  0  0  0  0  0  0  0  0  0  0  0
  -17.5260   42.9999   18.9435 N   0  0  0  0  0  0  0  0  0  0  0  0
  -16.7324   41.8417   19.4714 C   0  0  0  0  0  0  0  0  0  0  0  0
  -15.3256   41.8995   19.9888 O   0  0  0  0  0  0  0  0  0  0  0  0
  -17.0521   44.4194   18.8402 C   0  0  0  0  0  0  0  0  0  0  0  0
  -24.6606   42.9975   15.5975 C   0  0  0  0  0  0  0  0  0  0  0  0
  -25.0778   43.5566   14.2696 O   0  0  0  0  0  0  0  0  0  0  0  0
  -25.1955   41.6728   16.0551 N   0  0  0  0  0  0  0  0  0  0  0  0
  -26.1476   40.9074   15.1847 C   0  0  0  0  0  0  0  0  0  0  0  0
  -25.6459   40.2151   13.9522 C   0  0  0  0  0  0  0  0  0  0  0  0
  -26.5980   39.4496   13.0818 C   0  0  0  0  0  0  0  0  0  0  0  0
  -28.0518   39.3765   13.4438 N   0  0  0  0  0  0  0  0  0  0  0  0
  -28.5536   40.0688   14.6764 C   0  0  0  0  0  0  0  0  0  0  0  0
  -27.6015   40.8342   15.5468 C   0  0  0  0  0  0  0  0  0  0  0  0
  -29.0039   38.6110   12.5734 C   0  0  0  0  0  0  0  0  0  0  0  0
  -29.3104   37.1749   12.8792 C   0  0  0  0  0  0  0  0  0  0  0  0
  -28.6802   36.0838   12.0652 C   0  0  0  0  0  0  0  0  0  0  0  0
  -28.9867   34.6476   12.3709 C   0  0  0  0  0  0  0  0  0  0  0  0
  -29.9233   34.3025   13.4906 C   0  0  0  0  0  0  0  0  0  0  0  0
  -30.5535   35.3936   14.3045 C   0  0  0  0  0  0  0  0  0  0  0  0
  -30.2470   36.8297   13.9988 C   0  0  0  0  0  0  0  0  0  0  0  0
  5  6  1  0  0  0
  6  7  1  0  0  0
  7  8  2  0  0  0
  8  9  1  0  0  0
  9 10  2  0  0  0
 10 11  1  0  0  0
 11 12  2  0  0  0
 12 13  1  0  0  0
 13 14  1  0  0  0
 14 15  2  0  0  0
 13 16  1  0  0  0
 10  2  1  0  0  0
  2  3  2  0  0  0
  2  4  2  0  0  0
  2  1  1  0  0  0
  1 17  1  0  0  0
 17 18  2  0  0  0
 17 19  1  0  0  0
 19 20  1  0  0  0
 20 21  1  0  0  0
 21 22  1  0  0  0
 22 23  1  0  0  0
 23 24  1  0  0  0
 24 25  1  0  0  0
 23 26  1  0  0  0
 26 27  1  0  0  0
 27 28  2  0  0  0
 28 29  1  0  0  0
 29 30  2  0  0  0
 30 31  1  0  0  0
 31 32  2  0  0  0
 14  6  1  0  0  0
 12  7  1  0  0  0
 25 20  1  0  0  0
 32 27  1  0  0  0
M  CHG 1  23   1
M  END
> <minimizedAffinity>
-5.94903

$$$$



 32 35  0  0  0  0  0  0  0  0999 V2000
  -23.9692   41.5226   15.1267 C   0  0  0  0  0  0  0  0  0  0  0  0
  -23.6507   40.6909   13.9197 N   0  0  0  0  0  0  0  0  0  0  0  0
  -24.9437   40.1903   13.3474 C   0  0  0  0  0  0  0  0  0  0  0  0
  -26.0613   40.7125   14.2007 C   0  0  0  0  0  0  0  0  0  0  0  0
  -25.4591   41.5360   15.3004 S   0  0  0  0  0  0  0  0  0  0  0  0
  -27.4830   40.3708   13.8661 C   0  0  0  0  0  0  0  0  0  0  0  0
  -28.6007   40.8930   14.7194 O   0  0  0  0  0  0  0  0  0  0  0  0
  -27.7870   39.5068   12.6783 N   0  0  0  0  0  0  0  0  0  0  0  0
  -26.6695   38.9845   11.8250 C   0  0  0  0  0  0  0  0  0  0  0  0
  -25.2477   39.3263   12.1596 N   0  0  0  0  0  0  0  0  0  0  0  0
  -20.9801   43.6110   17.7637 N   0  0  0  0  0  0  0  0  0  0  0  0
  -20.7389   42.1949   17.3321 C   0  0  0  0  0  0  0  0  0  0  0  0
  -21.7354   41.4988   16.4530 C   0  0  0  0  0  0  0  0  0  0  0  0
  -22.9729   42.2188   16.0057 N   0  0  0  0  0  0  0  0  0  0  0  0
  -23.2140   43.6349   16.4373 C   0  0  0  0  0  0  0  0  0  0  0  0
  -22.2176   44.3310   17.3164 C   0  0  0  0  0  0  0  0  0  0  0  0
  -18.5161   44.0616   18.4534 C   0  0  0  0  0  0  0  0  0  0  0  0
  -19.9837   44.3072   18.6427 C   0  0  0  0  0  0  0  0  0  0  0  0
  -29.2088   39.1650   12.3437 C   0  0  0  0  0  0  0  0  0  0  0  0
  -29.8882   38.0213   13.0367 C   0  0  0  0  0  0  0  0  0  0  0  0
  -31.3135   38.1556   13.4848 O   0  0  0  0  0  0  0  0  0  0  0  0
  -29.1424   36.7432   13.2817 N   0  0  0  0  0  0  0  0  0  0  0  0
  -29.8218   35.5993   13.9748 C   0  0  0  0  0  0  0  0  0  0  0  0
  -30.3733   34.4578   13.1732 C   0  0  0  0  0  0  0  0  0  0  0  0
  -29.9496   35.5972   15.4693 C   0  0  0  0  0  0  0  0  0  0  0  0
  -28.7652   35.2528   16.3228 C   0  0  0  0  0  0  0  0  0  0  0  0
  -28.8930   35.2507   17.8174 C   0  0  0  0  0  0  0  0  0  0  0  0
  -30.2052   35.5929   18.4584 C   0  0  0  0  0  0  0  0  0  0  0  0
  -31.3897   35.9374   17.6049 C   0  0  0  0  0  0  0  0  0  0  0  0
  -31.2618   35.9395   16.1104 C   0  0  0  0  0  0  0  0  0  0  0  0
  -32.7019   36.2796   18.2459 O   0  0  0  0  0  0  0  0  0  0  0  0
  -33.8701   36.6812   17.3950 C   0  0  0  0  0  0  0  0  0  0  0  0
 17 18  1  0  0  0
 18 11  1  0  0  0
 11 12  1  0  0  0
 12 13  1  0  0  0
 13 14  1  0  0  0
 14 15  1  0  0  0
 15 16  1  0  0  0
 14  1  1  0  0  0
  1  2  2  0  0  0
  2  3  1  0  0  0
  3  4  2  0  0  0
  4  5  1  0  0  0
  4  6  1  0  0  0
  6  7  2  0  0  0
  6  8  1  0  0  0
  8  9  1  0  0  0
  9 10  2  0  0  0
  8 19  1  0  0  0
 19 20  1  0  0  0
 20 21  2  0  0  0
 20 22  1  0  0  0
 22 23  1  0  0  0
 23 24  1  0  0  0
 23 25  1  0  0  0
 25 26  2  0  0  0
 26 27  1  0  0  0
 27 28  2  0  0  0
 28 29  1  0  0  0
 29 30  2  0  0  0
 29 31  1  0  0  0
 31 32  1  0  0  0
 16 11  1  0  0  0
  5  1  1  0  0  0
 10  3  1  0  0  0
 30 25  1  0  0  0
M  CHG 1  11   1
M  END
> <minimizedAffinity>
-5.57944

$$$$



 32 36  0  0  0  0  0  0  0  0999 V2000
  -26.8568   37.3655   13.8734 C   0  0  0  0  0  0  0  0  0  0  0  0
  -26.3583   38.4653   12.9836 C   0  0  0  0  0  0  0  0  0  0  0  0
  -25.1861   39.1128   13.6593 C   0  0  0  0  0  0  0  0  0  0  0  0
  -24.9602   38.4132   14.9668 C   0  0  0  0  0  0  0  0  0  0  0  0
  -23.8897   38.7367   15.9665 O   0  0  0  0  0  0  0  0  0  0  0  0
  -25.9928   37.3332   15.0991 N   0  0  0  0  0  0  0  0  0  0  0  0
  -24.3811   40.2588   13.1220 O   0  0  0  0  0  0  0  0  0  0  0  0
  -29.3610   34.6374   12.7102 C   0  0  0  0  0  0  0  0  0  0  0  0
  -27.9873   35.2401   12.7114 C   0  0  0  0  0  0  0  0  0  0  0  0
  -28.0160   36.4573   13.5876 C   0  0  0  0  0  0  0  0  0  0  0  0
  -29.4073   36.6068   14.1280 S   0  0  0  0  0  0  0  0  0  0  0  0
  -30.2385   35.4821   13.5858 C   0  0  0  0  0  0  0  0  0  0  0  0
  -26.9313   38.8501   11.6518 C   0  0  0  0  0  0  0  0  0  0  0  0
  -26.0708   38.8054   10.4239 O   0  0  0  0  0  0  0  0  0  0  0  0
  -28.3647   39.2796   11.5479 C   0  0  0  0  0  0  0  0  0  0  0  0
  -29.2103   38.8002   10.4055 C   0  0  0  0  0  0  0  0  0  0  0  0
  -30.6438   39.2296   10.3016 C   0  0  0  0  0  0  0  0  0  0  0  0
  -31.2316   40.1385   11.3400 C   0  0  0  0  0  0  0  0  0  0  0  0
  -30.3859   40.6179   12.4825 C   0  0  0  0  0  0  0  0  0  0  0  0
  -28.9525   40.1885   12.5864 C   0  0  0  0  0  0  0  0  0  0  0  0
  -30.9738   41.5268   13.5209 O   0  0  0  0  0  0  0  0  0  0  0  0
  -32.4072   41.9563   13.4170 C   0  0  0  0  0  0  0  0  0  0  0  0
  -33.2528   41.4769   12.2747 C   0  0  0  0  0  0  0  0  0  0  0  0
  -32.6650   40.5680   11.2361 O   0  0  0  0  0  0  0  0  0  0  0  0
  -26.1362   36.3871   16.2542 C   0  0  0  0  0  0  0  0  0  0  0  0
  -25.7642   34.9431   16.0917 C   0  0  0  0  0  0  0  0  0  0  0  0
  -26.8357   33.8956   16.0236 C   0  0  0  0  0  0  0  0  0  0  0  0
  -26.5227   32.5375   15.4690 N   0  0  0  0  0  0  0  0  0  0  0  0
  -27.2836   31.8304   14.3868 C   0  0  0  0  0  0  0  0  0  0  0  0
  -26.6251   30.5040   14.1481 C   0  0  0  0  0  0  0  0  0  0  0  0
  -25.4574   30.3914   15.0827 N   0  0  0  0  0  0  0  0  0  0  0  0
  -25.3941   31.6481   15.8990 C   0  0  0  0  0  0  0  0  0  0  0  0
  8  9  1  0  0  0
  9 10  2  0  0  0
 10 11  1  0  0  0
 11 12  1  0  0  0
  1 10  1  0  0  0
  1  2  1  0  0  0
  2  3  2  0  0  0
  3  4  1  0  0  0
  4  5  2  0  0  0
  4  6  1  0  0  0
  6 25  1  0  0  0
 25 26  1  0  0  0
 26 27  1  0  0  0
 27 28  1  0  0  0
 28 29  1  0  0  0
 29 30  2  0  0  0
 30 31  1  0  0  0
 31 32  2  0  0  0
  3  7  1  0  0  0
  2 13  1  0  0  0
 13 14  2  0  0  0
 13 15  1  0  0  0
 15 16  2  0  0  0
 16 17  1  0  0  0
 17 18  2  0  0  0
 18 19  1  0  0  0
 19 20  2  0  0  0
 19 21  1  0  0  0
 21 22  1  0  0  0
 22 23  1  0  0  0
 23 24  1  0  0  0
 12  8  2  0  0  0
  6  1  1  0  0  0
 32 28  1  0  0  0
 20 15  1  0  0  0
 24 18  1  0  0  0
M  CHG 1  31   1
M  END
> <minimizedAffinity>
-6.49792

$$$$



 31 35  0  0  0  0  0  0  0  0999 V2000
  -27.3764   33.8996   16.9143 C   0  0  0  0  0  0  0  0  0  0  0  0
  -26.3324   34.5470   16.0536 C   0  0  0  0  0  0  0  0  0  0  0  0
  -27.0243   35.4956   15.1200 C   0  0  0  0  0  0  0  0  0  0  0  0
  -26.5044   36.4071   14.0483 N   0  0  0  0  0  0  0  0  0  0  0  0
  -27.4562   37.2575   13.2602 C   0  0  0  0  0  0  0  0  0  0  0  0
  -28.9278   37.1963   13.5439 C   0  0  0  0  0  0  0  0  0  0  0  0
  -29.4477   36.2847   14.6157 C   0  0  0  0  0  0  0  0  0  0  0  0
  -30.9194   36.2234   14.8995 O   0  0  0  0  0  0  0  0  0  0  0  0
  -28.4959   35.4344   15.4038 N   0  0  0  0  0  0  0  0  0  0  0  0
  -28.7135   34.4480   16.5127 N   0  0  0  0  0  0  0  0  0  0  0  0
  -29.8796   38.0466   12.7559 C   0  0  0  0  0  0  0  0  0  0  0  0
  -29.3597   38.9582   11.6841 N   0  0  0  0  0  0  0  0  0  0  0  0
  -27.8881   39.0194   11.4003 C   0  0  0  0  0  0  0  0  0  0  0  0
  -26.9363   38.1691   12.1884 C   0  0  0  0  0  0  0  0  0  0  0  0
  -30.3115   39.8086   10.8960 C   0  0  0  0  0  0  0  0  0  0  0  0
  -30.9227   41.0272   11.5216 C   0  0  0  0  0  0  0  0  0  0  0  0
  -31.8745   41.8775   10.7336 C   0  0  0  0  0  0  0  0  0  0  0  0
  -32.2150   41.5093    9.3198 O   0  0  0  0  0  0  0  0  0  0  0  0
  -31.6038   40.2907    8.6942 C   0  0  0  0  0  0  0  0  0  0  0  0
  -30.6520   39.4403    9.4823 C   0  0  0  0  0  0  0  0  0  0  0  0
  -26.8579   31.4223   17.7741 N   0  0  0  0  0  0  0  0  0  0  0  0
  -26.6676   30.7842   19.1181 C   0  0  0  0  0  0  0  0  0  0  0  0
  -26.8191   31.8498   20.1628 C   0  0  0  0  0  0  0  0  0  0  0  0
  -27.1030   33.1465   19.4645 C   0  0  0  0  0  0  0  0  0  0  0  0
  -27.1270   32.8823   17.9881 C   0  0  0  0  0  0  0  0  0  0  0  0
  -26.7908   30.7232   16.4487 S   0  0  0  0  0  0  0  0  0  0  0  0
  -28.1541   30.1439   16.6851 O   0  0  0  0  0  0  0  0  0  0  0  0
  -25.4276   31.3024   16.2122 O   0  0  0  0  0  0  0  0  0  0  0  0
  -26.7237   30.0241   15.1232 C   0  0  0  0  0  0  0  0  0  0  0  0
  -27.6185   31.9480   13.6239 C   0  0  0  0  0  0  0  0  0  0  0  0
  -27.5799   30.4925   13.9841 C   0  0  0  0  0  0  0  0  0  0  0  0
 30 31  2  0  0  0
 31 29  1  0  0  0
 29 26  1  0  0  0
 26 27  2  0  0  0
 26 28  2  0  0  0
 26 21  1  0  0  0
 21 22  1  0  0  0
 22 23  1  0  0  0
 23 24  1  0  0  0
 24 25  1  0  0  0
 25  1  1  0  0  0
  1  2  1  0  0  0
  2  3  2  0  0  0
  3  4  1  0  0  0
  4  5  1  0  0  0
  5  6  2  0  0  0
  6  7  1  0  0  0
  7  8  2  0  0  0
  7  9  1  0  0  0
  9 10  1  0  0  0
  6 11  1  0  0  0
 11 12  1  0  0  0
 12 13  1  0  0  0
 13 14  1  0  0  0
 12 15  1  0  0  0
 15 16  1  0  0  0
 16 17  1  0  0  0
 17 18  1  0  0  0
 18 19  1  0  0  0
 19 20  1  0  0  0
 25 21  1  0  0  0
 10  1  2  0  0  0
  9  3  1  0  0  0
 14  5  1  0  0  0
 20 15  1  0  0  0
M  CHG 1  12   1
M  END
> <minimizedAffinity>
-5.97522

$$$$



 32 35  0  0  0  0  0  0  0  0999 V2000
  -25.7522   40.8657   15.5112 N   0  0  0  0  0  0  0  0  0  0  0  0
  -24.9250   42.0805   15.2109 C   0  0  0  0  0  0  0  0  0  0  0  0
  -25.4213   43.1024   14.2313 O   0  0  0  0  0  0  0  0  0  0  0  0
  -33.2311   40.6080   13.1396 C   0  0  0  0  0  0  0  0  0  0  0  0
  -31.7447   40.4086   13.1689 N   0  0  0  0  0  0  0  0  0  0  0  0
  -31.0640   39.6759   12.0509 C   0  0  0  0  0  0  0  0  0  0  0  0
  -29.5776   39.4765   12.0803 C   0  0  0  0  0  0  0  0  0  0  0  0
  -28.7719   40.0098   13.2275 C   0  0  0  0  0  0  0  0  0  0  0  0
  -29.4525   40.7425   14.3454 C   0  0  0  0  0  0  0  0  0  0  0  0
  -28.4042   41.1524   15.3370 S   0  0  0  0  0  0  0  0  0  0  0  0
  -27.0757   40.6729   14.8319 C   0  0  0  0  0  0  0  0  0  0  0  0
  -27.3029   39.9668   13.5281 C   0  0  0  0  0  0  0  0  0  0  0  0
  -30.9389   40.9419   14.3161 C   0  0  0  0  0  0  0  0  0  0  0  0
  -26.2467   39.3295   12.6748 C   0  0  0  0  0  0  0  0  0  0  0  0
  -26.2195   39.5873   11.1974 O   0  0  0  0  0  0  0  0  0  0  0  0
  -25.2176   38.4343   13.2988 O   0  0  0  0  0  0  0  0  0  0  0  0
  -25.6479   37.2694   14.1403 C   0  0  0  0  0  0  0  0  0  0  0  0
  -23.6016   42.2733   15.8901 C   0  0  0  0  0  0  0  0  0  0  0  0
  -22.6146   41.1451   15.9436 C   0  0  0  0  0  0  0  0  0  0  0  0
  -21.2912   41.3379   16.6228 C   0  0  0  0  0  0  0  0  0  0  0  0
  -20.9548   42.6590   17.2487 C   0  0  0  0  0  0  0  0  0  0  0  0
  -21.9419   43.7872   17.1952 C   0  0  0  0  0  0  0  0  0  0  0  0
  -23.2653   43.5943   16.5159 C   0  0  0  0  0  0  0  0  0  0  0  0
  -19.6314   42.8519   17.9279 S   0  0  0  0  0  0  0  0  0  0  0  0
  -19.6068   41.3972   18.2929 O   0  0  0  0  0  0  0  0  0  0  0  0
  -19.6561   44.3066   17.5629 O   0  0  0  0  0  0  0  0  0  0  0  0
  -18.3080   43.0447   18.6071 N   0  0  0  0  0  0  0  0  0  0  0  0
  -17.7064   44.4155   18.7020 C   0  0  0  0  0  0  0  0  0  0  0  0
  -16.3829   44.6083   19.3813 C   0  0  0  0  0  0  0  0  0  0  0  0
  -15.6612   43.4304   19.9657 O   0  0  0  0  0  0  0  0  0  0  0  0
  -16.2628   42.0596   19.8708 C   0  0  0  0  0  0  0  0  0  0  0  0
  -17.5862   41.8667   19.1915 C   0  0  0  0  0  0  0  0  0  0  0  0
  4  5  1  0  0  0
  5  6  1  0  0  0
  6  7  1  0  0  0
  7  8  1  0  0  0
  8  9  2  0  0  0
  9 10  1  0  0  0
 10 11  1  0  0  0
 11 12  2  0  0  0
 12 14  1  0  0  0
 14 15  2  0  0  0
 14 16  1  0  0  0
 16 17  1  0  0  0
 11  1  1  0  0  0
  1  2  1  0  0  0
  2  3  2  0  0  0
  2 18  1  0  0  0
 18 19  2  0  0  0
 19 20  1  0  0  0
 20 21  2  0  0  0
 21 22  1  0  0  0
 22 23  2  0  0  0
 21 24  1  0  0  0
 24 25  2  0  0  0
 24 26  2  0  0  0
 24 27  1  0  0  0
 27 28  1  0  0  0
 28 29  1  0  0  0
 29 30  1  0  0  0
 30 31  1  0  0  0
 31 32  1  0  0  0
  9 13  1  0  0  0
 13  5  1  0  0  0
 12  8  1  0  0  0
 23 18  1  0  0  0
 32 27  1  0  0  0
M  CHG 1   5   1
M  END
> <minimizedAffinity>
-5.11237

$$$$



 32 35  0  0  0  0  0  0  0  0999 V2000
  -30.4094   34.7591   13.5823 C   0  0  0  0  0  0  0  0  0  0  0  0
  -29.9851   35.4990   14.8162 C   0  0  0  0  0  0  0  0  0  0  0  0
  -30.1352   36.9899   14.8854 C   0  0  0  0  0  0  0  0  0  0  0  0
  -31.4253   37.5928   15.3568 O   0  0  0  0  0  0  0  0  0  0  0  0
  -28.9952   37.8780   14.4832 N   0  0  0  0  0  0  0  0  0  0  0  0
  -27.7051   37.2751   14.0118 C   0  0  0  0  0  0  0  0  0  0  0  0
  -26.5651   38.1632   13.6096 C   0  0  0  0  0  0  0  0  0  0  0  0
  -26.7151   39.6541   13.6788 N   0  0  0  0  0  0  0  0  0  0  0  0
  -28.0053   40.2569   14.1502 C   0  0  0  0  0  0  0  0  0  0  0  0
  -29.1453   39.3689   14.5524 C   0  0  0  0  0  0  0  0  0  0  0  0
  -25.5752   40.5421   13.2766 C   0  0  0  0  0  0  0  0  0  0  0  0
  -24.7398   41.2121   14.3270 C   0  0  0  0  0  0  0  0  0  0  0  0
  -23.6455   40.4499   15.0138 C   0  0  0  0  0  0  0  0  0  0  0  0
  -22.8101   41.1199   16.0641 C   0  0  0  0  0  0  0  0  0  0  0  0
  -23.0689   42.5519   16.4277 C   0  0  0  0  0  0  0  0  0  0  0  0
  -24.1632   43.3140   15.7409 C   0  0  0  0  0  0  0  0  0  0  0  0
  -24.9986   42.6442   14.6906 C   0  0  0  0  0  0  0  0  0  0  0  0
  -29.4106   34.7482   15.9808 N   0  0  0  0  0  0  0  0  0  0  0  0
  -27.9244   34.6857   16.1733 S   0  0  0  0  0  0  0  0  0  0  0  0
  -27.8489   33.5335   15.2158 O   0  0  0  0  0  0  0  0  0  0  0  0
  -27.9999   35.8378   17.1307 O   0  0  0  0  0  0  0  0  0  0  0  0
  -26.4381   34.6231   16.3658 C   0  0  0  0  0  0  0  0  0  0  0  0
  -25.7355   33.2979   16.3533 C   0  0  0  0  0  0  0  0  0  0  0  0
  -24.2492   33.2352   16.5457 C   0  0  0  0  0  0  0  0  0  0  0  0
  -23.4656   34.4977   16.7507 C   0  0  0  0  0  0  0  0  0  0  0  0
  -24.1682   35.8228   16.7632 C   0  0  0  0  0  0  0  0  0  0  0  0
  -25.6545   35.8856   16.5707 C   0  0  0  0  0  0  0  0  0  0  0  0
  -23.5817   37.1907   16.9504 O   0  0  0  0  0  0  0  0  0  0  0  0
  -22.1476   37.5712   17.1713 C   0  0  0  0  0  0  0  0  0  0  0  0
  -20.9460   36.6778   17.2596 C   0  0  0  0  0  0  0  0  0  0  0  0
  -20.8815   35.1832   17.1488 C   0  0  0  0  0  0  0  0  0  0  0  0
  -22.0028   34.2130   16.9223 O   0  0  0  0  0  0  0  0  0  0  0  0
  2  1  1  0  0  0
  2  3  1  0  0  0
  3  4  2  0  0  0
  3  5  1  0  0  0
  5  6  1  0  0  0
  6  7  1  0  0  0
  7  8  1  0  0  0
  8  9  1  0  0  0
  9 10  1  0  0  0
  8 11  1  0  0  0
 11 12  1  0  0  0
 12 13  2  0  0  0
 13 14  1  0  0  0
 14 15  2  0  0  0
 15 16  1  0  0  0
 16 17  2  0  0  0
  2 18  1  0  0  0
 18 19  1  0  0  0
 19 20  2  0  0  0
 19 21  2  0  0  0
 19 22  1  0  0  0
 22 23  2  0  0  0
 23 24  1  0  0  0
 24 25  2  0  0  0
 25 26  1  0  0  0
 26 27  2  0  0  0
 26 28  1  0  0  0
 28 29  1  0  0  0
 29 30  1  0  0  0
 30 31  1  0  0  0
 31 32  1  0  0  0
 10  5  1  0  0  0
 17 12  1  0  0  0
 27 22  1  0  0  0
 32 25  1  0  0  0
M  CHG 1   8   1
M  END
> <minimizedAffinity>
-6.79342

$$$$



 31 34  0  0  0  0  0  0  0  0999 V2000
  -21.4892   39.6871   17.4578 C   0  0  0  0  0  0  0  0  0  0  0  0
  -21.2518   41.1509   17.6836 C   0  0  0  0  0  0  0  0  0  0  0  0
  -22.1590   42.1642   17.0511 N   0  0  0  0  0  0  0  0  0  0  0  0
  -23.3037   41.7138   16.1927 C   0  0  0  0  0  0  0  0  0  0  0  0
  -24.2109   42.7271   15.5601 C   0  0  0  0  0  0  0  0  0  0  0  0
  -25.3555   42.2766   14.7017 C   0  0  0  0  0  0  0  0  0  0  0  0
  -25.5929   40.8129   14.4759 C   0  0  0  0  0  0  0  0  0  0  0  0
  -24.6857   39.7996   15.1084 C   0  0  0  0  0  0  0  0  0  0  0  0
  -23.5411   40.2500   15.9668 C   0  0  0  0  0  0  0  0  0  0  0  0
  -22.6338   39.2367   16.5994 C   0  0  0  0  0  0  0  0  0  0  0  0
  -22.8712   37.7729   16.3735 O   0  0  0  0  0  0  0  0  0  0  0  0
  -21.9216   43.6280   17.2770 C   0  0  0  0  0  0  0  0  0  0  0  0
  -21.1616   37.5340   18.8744 N   0  0  0  0  0  0  0  0  0  0  0  0
  -20.5819   38.6738   18.0903 C   0  0  0  0  0  0  0  0  0  0  0  0
  -19.0950   38.8003   17.9388 O   0  0  0  0  0  0  0  0  0  0  0  0
  -20.8577   34.8160   17.6415 C   0  0  0  0  0  0  0  0  0  0  0  0
  -20.1023   35.1617   18.8905 C   0  0  0  0  0  0  0  0  0  0  0  0
  -19.1951   34.1485   19.5230 C   0  0  0  0  0  0  0  0  0  0  0  0
  -18.4398   34.4942   20.7720 C   0  0  0  0  0  0  0  0  0  0  0  0
  -18.5917   35.8531   21.3885 C   0  0  0  0  0  0  0  0  0  0  0  0
  -19.4990   36.8665   20.7559 C   0  0  0  0  0  0  0  0  0  0  0  0
  -20.2543   36.5208   19.5070 C   0  0  0  0  0  0  0  0  0  0  0  0
  -26.7376   40.3624   13.6174 S   0  0  0  0  0  0  0  0  0  0  0  0
  -25.7711   39.9341   12.5533 O   0  0  0  0  0  0  0  0  0  0  0  0
  -27.7041   40.7908   14.6815 O   0  0  0  0  0  0  0  0  0  0  0  0
  -27.8823   39.9120   12.7590 N   0  0  0  0  0  0  0  0  0  0  0  0
  -27.6450   38.9386   11.6427 C   0  0  0  0  0  0  0  0  0  0  0  0
  -28.7896   38.4882   10.7843 C   0  0  0  0  0  0  0  0  0  0  0  0
  -30.1716   39.0112   11.0422 O   0  0  0  0  0  0  0  0  0  0  0  0
  -30.4090   39.9846   12.1585 C   0  0  0  0  0  0  0  0  0  0  0  0
  -29.2643   40.4351   13.0169 C   0  0  0  0  0  0  0  0  0  0  0  0
 17 16  1  0  0  0
 17 18  1  0  0  0
 18 19  1  0  0  0
 19 20  1  0  0  0
 20 21  1  0  0  0
 21 22  1  0  0  0
 22 13  1  0  0  0
 13 14  2  0  0  0
 14  1  1  0  0  0
  1  2  2  0  0  0
  2  3  1  0  0  0
  3  4  1  0  0  0
  4  5  2  0  0  0
  5  6  1  0  0  0
  6  7  2  0  0  0
  7  8  1  0  0  0
  8  9  2  0  0  0
  9 10  1  0  0  0
 10 11  2  0  0  0
  7 23  1  0  0  0
 23 24  2  0  0  0
 23 25  2  0  0  0
 23 26  1  0  0  0
 26 27  1  0  0  0
 27 28  1  0  0  0
 28 29  1  0  0  0
 29 30  1  0  0  0
 30 31  1  0  0  0
  3 12  1  0  0  0
 14 15  1  0  0  0
 22 17  1  0  0  0
 10  1  1  0  0  0
  9  4  1  0  0  0
 31 26  1  0  0  0
M  CHG 1  13   1
M  END
> <minimizedAffinity>
-5.58078

$$$$



 33 36  0  0  0  0  0  0  0  0999 V2000
  -28.4377   36.6967   13.4359 N   0  0  0  0  0  0  0  0  0  0  0  0
  -28.4584   35.2247   13.1486 C   0  0  0  0  0  0  0  0  0  0  0  0
  -29.2072   34.7034   11.9580 O   0  0  0  0  0  0  0  0  0  0  0  0
  -27.7304   34.2738   14.0519 C   0  0  0  0  0  0  0  0  0  0  0  0
  -27.7512   32.8018   13.7646 C   0  0  0  0  0  0  0  0  0  0  0  0
  -27.0231   31.8510   14.6679 C   0  0  0  0  0  0  0  0  0  0  0  0
  -26.2743   32.3723   15.8585 C   0  0  0  0  0  0  0  0  0  0  0  0
  -26.2536   33.8444   16.1458 C   0  0  0  0  0  0  0  0  0  0  0  0
  -26.9816   34.7951   15.2425 C   0  0  0  0  0  0  0  0  0  0  0  0
  -26.9608   36.2673   15.5298 N   0  0  0  0  0  0  0  0  0  0  0  0
  -27.6889   37.2180   14.6265 C   0  0  0  0  0  0  0  0  0  0  0  0
  -27.6681   38.6901   14.9138 O   0  0  0  0  0  0  0  0  0  0  0  0
  -27.0439   30.3789   14.3806 C   0  0  0  0  0  0  0  0  0  0  0  0
  -30.6218   39.5492   10.7261 C   0  0  0  0  0  0  0  0  0  0  0  0
  -29.3311   38.9295   10.2790 C   0  0  0  0  0  0  0  0  0  0  0  0
  -28.6030   37.9787   11.1822 C   0  0  0  0  0  0  0  0  0  0  0  0
  -29.1657   37.6476   12.5326 C   0  0  0  0  0  0  0  0  0  0  0  0
  -30.4565   38.2672   12.9798 C   0  0  0  0  0  0  0  0  0  0  0  0
  -31.1845   39.2180   12.0765 C   0  0  0  0  0  0  0  0  0  0  0  0
  -31.3499   40.5000    9.8228 O   0  0  0  0  0  0  0  0  0  0  0  0
  -32.0434   39.1462    7.7167 C   0  0  0  0  0  0  0  0  0  0  0  0
  -31.3125   40.3000    8.3367 C   0  0  0  0  0  0  0  0  0  0  0  0
  -26.2120   36.7885   16.7204 C   0  0  0  0  0  0  0  0  0  0  0  0
  -25.1413   37.8233   16.5389 C   0  0  0  0  0  0  0  0  0  0  0  0
  -24.6156   38.5748   17.7258 O   0  0  0  0  0  0  0  0  0  0  0  0
  -24.5965   38.1066   15.1704 N   0  0  0  0  0  0  0  0  0  0  0  0
  -23.5258   39.1413   14.9888 C   0  0  0  0  0  0  0  0  0  0  0  0
  -23.8693   40.5990   15.0745 C   0  0  0  0  0  0  0  0  0  0  0  0
  -23.0919   41.5002   15.9873 C   0  0  0  0  0  0  0  0  0  0  0  0
  -23.4353   42.9579   16.0730 C   0  0  0  0  0  0  0  0  0  0  0  0
  -24.5561   43.5142   15.2459 C   0  0  0  0  0  0  0  0  0  0  0  0
  -25.3335   42.6130   14.3330 N   0  0  0  0  0  0  0  0  0  0  0  0
  -24.9900   41.1553   14.2473 C   0  0  0  0  0  0  0  0  0  0  0  0
 21 22  1  0  0  0
 22 20  1  0  0  0
 20 14  1  0  0  0
 14 15  2  0  0  0
 15 16  1  0  0  0
 16 17  2  0  0  0
 17 18  1  0  0  0
 18 19  2  0  0  0
 17  1  1  0  0  0
  1  2  1  0  0  0
  2  3  2  0  0  0
  2  4  1  0  0  0
  4  5  2  0  0  0
  5  6  1  0  0  0
  6  7  2  0  0  0
  7  8  1  0  0  0
  8  9  2  0  0  0
  9 10  1  0  0  0
 10 11  1  0  0  0
 11 12  2  0  0  0
 10 23  1  0  0  0
 23 24  1  0  0  0
 24 25  2  0  0  0
 24 26  1  0  0  0
 26 27  1  0  0  0
 27 28  1  0  0  0
 28 29  2  0  0  0
 29 30  1  0  0  0
 30 31  2  0  0  0
 31 32  1  0  0  0
 32 33  2  0  0  0
  6 13  1  0  0  0
 19 14  1  0  0  0
 11  1  1  0  0  0
  9  4  1  0  0  0
 33 28  1  0  0  0
M  CHG 1  32   1
M  END
> <minimizedAffinity>
-6.76798

$$$$



 31 34  0  0  0  0  0  0  0  0999 V2000
  -13.4626   44.1474  -15.8902 C   0  0  0  0  0  0  0  0  0  0  0  0
  -13.2298   43.8476  -17.3413 O   0  0  0  0  0  0  0  0  0  0  0  0
  -14.8624   44.2497  -15.3606 N   0  0  0  0  0  0  0  0  0  0  0  0
  -16.0292   44.0521  -16.2822 N   0  0  0  0  0  0  0  0  0  0  0  0
  -16.5987   45.2198  -17.0320 C   0  0  0  0  0  0  0  0  0  0  0  0
  -17.7657   45.0223  -17.9537 C   0  0  0  0  0  0  0  0  0  0  0  0
  -19.0262   44.3899  -17.4428 C   0  0  0  0  0  0  0  0  0  0  0  0
  -20.1931   44.1924  -18.3645 C   0  0  0  0  0  0  0  0  0  0  0  0
  -21.4537   43.5601  -17.8536 C   0  0  0  0  0  0  0  0  0  0  0  0
  -22.6205   43.3626  -18.7753 C   0  0  0  0  0  0  0  0  0  0  0  0
  -22.5268   43.7975  -20.2078 C   0  0  0  0  0  0  0  0  0  0  0  0
  -21.2662   44.4299  -20.7187 C   0  0  0  0  0  0  0  0  0  0  0  0
  -20.0994   44.6273  -19.7970 C   0  0  0  0  0  0  0  0  0  0  0  0
  -18.8387   45.2597  -20.3078 N   0  0  0  0  0  0  0  0  0  0  0  0
  -17.6719   45.4572  -19.3862 C   0  0  0  0  0  0  0  0  0  0  0  0
  -16.4112   46.0896  -19.8970 O   0  0  0  0  0  0  0  0  0  0  0  0
  -12.2958   44.3449  -14.9685 C   0  0  0  0  0  0  0  0  0  0  0  0
  -11.1156   43.6580  -12.7582 C   0  0  0  0  0  0  0  0  0  0  0  0
  -12.3733   43.8696  -13.5480 C   0  0  0  0  0  0  0  0  0  0  0  0
  -11.0515   45.0178  -15.4675 O   0  0  0  0  0  0  0  0  0  0  0  0
  -10.9556   46.5146  -15.4645 C   0  0  0  0  0  0  0  0  0  0  0  0
  -10.7885   47.2530  -14.1695 C   0  0  0  0  0  0  0  0  0  0  0  0
  -10.6926   48.7499  -14.1665 C   0  0  0  0  0  0  0  0  0  0  0  0
  -10.7638   49.5085  -15.4586 C   0  0  0  0  0  0  0  0  0  0  0  0
  -10.6679   51.0055  -15.4556 C   0  0  0  0  0  0  0  0  0  0  0  0
  -10.7390   51.7642  -16.7476 C   0  0  0  0  0  0  0  0  0  0  0  0
  -10.9061   51.0259  -18.0426 C   0  0  0  0  0  0  0  0  0  0  0  0
  -11.0020   49.5290  -18.0456 C   0  0  0  0  0  0  0  0  0  0  0  0
  -10.9308   48.7703  -16.7536 C   0  0  0  0  0  0  0  0  0  0  0  0
  -11.0268   47.2733  -16.7566 C   0  0  0  0  0  0  0  0  0  0  0  0
  -11.1938   46.5351  -18.0516 Br  0  0  0  0  0  0  0  0  0  0  0  0
 18 19  1  0  0  0
 17 19  1  0  0  0
 17  1  1  0  0  0
  1  2  2  0  0  0
  1  3  1  0  0  0
  3  4  1  0  0  0
  4  5  2  0  0  0
  5  6  1  0  0  0
  6  7  2  0  0  0
  7  8  1  0  0  0
  8  9  2  0  0  0
  9 10  1  0  0  0
 10 11  2  0  0  0
 11 12  1  0  0  0
 12 13  2  0  0  0
 13 14  1  0  0  0
 14 15  1  0  0  0
 15 16  2  0  0  0
 17 20  1  0  0  0
 20 21  1  0  0  0
 21 22  2  0  0  0
 22 23  1  0  0  0
 23 24  2  0  0  0
 24 25  1  0  0  0
 25 26  2  0  0  0
 26 27  1  0  0  0
 27 28  2  0  0  0
 28 29  1  0  0  0
 29 30  2  0  0  0
 30 31  1  0  0  0
 15  6  1  0  0  0
 13  8  1  0  0  0
 30 21  1  0  0  0
 29 24  1  0  0  0
M  END
> <minimizedAffinity>
-6.55130

$$$$



 33 36  0  0  0  0  0  0  0  0999 V2000
  -14.7172   44.2555  -15.8204 C   0  0  0  0  0  0  0  0  0  0  0  0
  -15.1459   43.2104  -16.8074 C   0  0  0  0  0  0  0  0  0  0  0  0
  -15.0719   42.0390  -17.7414 C   0  0  0  0  0  0  0  0  0  0  0  0
  -16.2963   41.5943  -18.4851 C   0  0  0  0  0  0  0  0  0  0  0  0
  -17.5947   42.3209  -18.2947 C   0  0  0  0  0  0  0  0  0  0  0  0
  -18.8191   41.8761  -19.0384 C   0  0  0  0  0  0  0  0  0  0  0  0
  -18.7451   40.7048  -19.9724 C   0  0  0  0  0  0  0  0  0  0  0  0
  -17.4467   39.9781  -20.1628 C   0  0  0  0  0  0  0  0  0  0  0  0
  -16.2223   40.4228  -19.4191 O   0  0  0  0  0  0  0  0  0  0  0  0
  -17.3728   38.8068  -21.0968 N   0  0  0  0  0  0  0  0  0  0  0  0
  -17.6686   43.4922  -17.3607 C   0  0  0  0  0  0  0  0  0  0  0  0
  -18.2528   43.9869  -17.1380 O   0  0  0  0  0  0  0  0  0  0  0  0
  -16.4443   43.9370  -16.6171 C   0  0  0  0  0  0  0  0  0  0  0  0
  -13.6986   42.8467  -16.6549 C   0  0  0  0  0  0  0  0  0  0  0  0
  -20.1174   42.6028  -18.8481 C   0  0  0  0  0  0  0  0  0  0  0  0
  -21.0498   42.1963  -17.7456 C   0  0  0  0  0  0  0  0  0  0  0  0
  -22.3482   42.9230  -17.5553 C   0  0  0  0  0  0  0  0  0  0  0  0
  -22.7142   44.0561  -18.4675 C   0  0  0  0  0  0  0  0  0  0  0  0
  -21.7819   44.4625  -19.5700 C   0  0  0  0  0  0  0  0  0  0  0  0
  -20.4835   43.7359  -19.7603 C   0  0  0  0  0  0  0  0  0  0  0  0
  -23.2805   42.5166  -16.4528 Br  0  0  0  0  0  0  0  0  0  0  0  0
  -19.5512   44.1423  -20.8629 O   0  0  0  0  0  0  0  0  0  0  0  0
  -18.6937   45.3633  -20.7081 C   0  0  0  0  0  0  0  0  0  0  0  0
  -17.2113   45.2208  -20.5288 C   0  0  0  0  0  0  0  0  0  0  0  0
  -16.4714   46.1614  -19.6243 C   0  0  0  0  0  0  0  0  0  0  0  0
  -14.9890   46.0189  -19.4451 C   0  0  0  0  0  0  0  0  0  0  0  0
  -14.2464   44.9360  -20.1704 C   0  0  0  0  0  0  0  0  0  0  0  0
  -14.9863   43.9956  -21.0748 C   0  0  0  0  0  0  0  0  0  0  0  0
  -16.4688   44.1380  -21.2540 C   0  0  0  0  0  0  0  0  0  0  0  0
  -19.9695   40.2601  -20.7161 C   0  0  0  0  0  0  0  0  0  0  0  0
  -20.1873   40.7001  -22.1335 O   0  0  0  0  0  0  0  0  0  0  0  0
  -20.9762   39.3752  -20.0424 O   0  0  0  0  0  0  0  0  0  0  0  0
  -20.7632   37.8909  -20.0037 C   0  0  0  0  0  0  0  0  0  0  0  0
  1  2  1  0  0  0
  2  3  1  0  0  0
  3  4  1  0  0  0
  4  5  2  0  0  0
  5  6  1  0  0  0
  6  7  1  0  0  0
  7  8  2  0  0  0
  8  9  1  0  0  0
  8 10  1  0  0  0
  7 30  1  0  0  0
 30 31  2  0  0  0
 30 32  1  0  0  0
 32 33  1  0  0  0
  6 15  1  0  0  0
 15 16  2  0  0  0
 16 17  1  0  0  0
 17 18  2  0  0  0
 18 19  1  0  0  0
 19 20  2  0  0  0
 20 22  1  0  0  0
 22 23  1  0  0  0
 23 24  1  0  0  0
 24 25  2  0  0  0
 25 26  1  0  0  0
 26 27  2  0  0  0
 27 28  1  0  0  0
 28 29  2  0  0  0
 17 21  1  0  0  0
  5 11  1  0  0  0
 11 12  2  0  0  0
 11 13  1  0  0  0
  2 14  1  0  0  0
 13  2  1  0  0  0
  9  4  1  0  0  0
 20 15  1  0  0  0
 29 24  1  0  0  0
M  END
> <minimizedAffinity>
-5.62353

$$$$



 36 40  0  0  0  0  0  0  0  0999 V2000
  -19.7123   44.3615  -19.7385 C   0  0  0  0  0  0  0  0  0  0  0  0
  -18.4196   44.4719  -18.9857 C   0  0  0  0  0  0  0  0  0  0  0  0
  -17.2488   45.3675  -19.2638 C   0  0  0  0  0  0  0  0  0  0  0  0
  -16.0402   45.3190  -18.3769 C   0  0  0  0  0  0  0  0  0  0  0  0
  -16.0021   44.3749  -17.2118 C   0  0  0  0  0  0  0  0  0  0  0  0
  -17.1728   43.4794  -16.9337 C   0  0  0  0  0  0  0  0  0  0  0  0
  -18.3816   43.5279  -17.8206 C   0  0  0  0  0  0  0  0  0  0  0  0
  -19.5523   42.6323  -17.5425 O   0  0  0  0  0  0  0  0  0  0  0  0
  -17.0818   46.3739  -20.3635 N   0  0  0  0  0  0  0  0  0  0  0  0
  -18.0440   46.7333  -21.4566 C   0  0  0  0  0  0  0  0  0  0  0  0
  -17.4822   47.7960  -22.3537 C   0  0  0  0  0  0  0  0  0  0  0  0
  -18.2875   48.3005  -23.5143 C   0  0  0  0  0  0  0  0  0  0  0  0
  -19.6546   47.7423  -23.7777 C   0  0  0  0  0  0  0  0  0  0  0  0
  -20.2164   46.6795  -22.8806 C   0  0  0  0  0  0  0  0  0  0  0  0
  -19.4111   46.1750  -21.7200 C   0  0  0  0  0  0  0  0  0  0  0  0
  -20.1535   45.1195  -20.9554 N   0  0  0  0  0  0  0  0  0  0  0  0
  -20.6312   41.9327  -19.6580 C   0  0  0  0  0  0  0  0  0  0  0  0
  -21.6124   40.9320  -19.1233 C   0  0  0  0  0  0  0  0  0  0  0  0
  -22.6559   41.3596  -18.1341 C   0  0  0  0  0  0  0  0  0  0  0  0
  -22.7182   42.7878  -17.6798 C   0  0  0  0  0  0  0  0  0  0  0  0
  -21.7370   43.7885  -18.2146 C   0  0  0  0  0  0  0  0  0  0  0  0
  -20.6935   43.3609  -19.2037 C   0  0  0  0  0  0  0  0  0  0  0  0
  -19.5878   41.5052  -20.6471 O   0  0  0  0  0  0  0  0  0  0  0  0
  -17.6172   40.3044  -19.4534 C   0  0  0  0  0  0  0  0  0  0  0  0
  -18.7816   40.2649  -20.3981 C   0  0  0  0  0  0  0  0  0  0  0  0
  -19.1400   38.9853  -21.0939 C   0  0  0  0  0  0  0  0  0  0  0  0
  -14.7934   44.3265  -16.3250 C   0  0  0  0  0  0  0  0  0  0  0  0
  -14.7841   43.4362  -15.1179 C   0  0  0  0  0  0  0  0  0  0  0  0
  -13.5754   43.3877  -14.2310 C   0  0  0  0  0  0  0  0  0  0  0  0
  -12.3759   44.2296  -14.5512 C   0  0  0  0  0  0  0  0  0  0  0  0
  -12.3852   45.1199  -15.7583 C   0  0  0  0  0  0  0  0  0  0  0  0
  -13.5940   45.1684  -16.6452 C   0  0  0  0  0  0  0  0  0  0  0  0
  -11.1858   45.9618  -16.0785 O   0  0  0  0  0  0  0  0  0  0  0  0
  -10.9571   47.2508  -15.3463 C   0  0  0  0  0  0  0  0  0  0  0  0
  -11.1672   44.1811  -13.6642 O   0  0  0  0  0  0  0  0  0  0  0  0
  -11.3218   43.8902  -12.2009 C   0  0  0  0  0  0  0  0  0  0  0  0
 24 25  1  0  0  0
 25 26  1  0  0  0
 25 23  1  0  0  0
 23 17  1  0  0  0
 17 18  2  0  0  0
 18 19  1  0  0  0
 19 20  2  0  0  0
 20 21  1  0  0  0
 21 22  2  0  0  0
  1 22  1  0  0  0
  1  2  1  0  0  0
  2  3  2  0  0  0
  3  4  1  0  0  0
  4  5  1  0  0  0
  5  6  1  0  0  0
  6  7  1  0  0  0
  7  8  2  0  0  0
  5 27  1  0  0  0
 27 28  2  0  0  0
 28 29  1  0  0  0
 29 30  2  0  0  0
 30 31  1  0  0  0
 31 32  2  0  0  0
 31 33  1  0  0  0
 33 34  1  0  0  0
 30 35  1  0  0  0
 35 36  1  0  0  0
  3  9  1  0  0  0
  9 10  1  0  0  0
 10 11  2  0  0  0
 11 12  1  0  0  0
 12 13  2  0  0  0
 13 14  1  0  0  0
 14 15  2  0  0  0
 15 16  1  0  0  0
 22 17  1  0  0  0
 16  1  1  0  0  0
  7  2  1  0  0  0
 32 27  1  0  0  0
 15 10  1  0  0  0
M  END
> <minimizedAffinity>
-6.87546

$$$$



 35 39  0  0  0  0  0  0  0  0999 V2000
  -16.8154   42.7469  -18.0389 C   0  0  0  0  0  0  0  0  0  0  0  0
  -17.2336   43.9336  -17.2224 C   0  0  0  0  0  0  0  0  0  0  0  0
  -16.2491   44.5984  -16.3065 C   0  0  0  0  0  0  0  0  0  0  0  0
  -14.8464   44.0763  -16.2071 C   0  0  0  0  0  0  0  0  0  0  0  0
  -14.4282   42.8896  -17.0235 C   0  0  0  0  0  0  0  0  0  0  0  0
  -15.4127   42.2248  -17.9395 C   0  0  0  0  0  0  0  0  0  0  0  0
  -13.0255   42.3675  -16.9241 C   0  0  0  0  0  0  0  0  0  0  0  0
  -12.0410   43.0322  -16.0082 C   0  0  0  0  0  0  0  0  0  0  0  0
  -10.7369   42.2993  -16.1189 C   0  0  0  0  0  0  0  0  0  0  0  0
  -10.9155   41.1817  -17.1032 C   0  0  0  0  0  0  0  0  0  0  0  0
  -12.3298   41.2238  -17.6009 C   0  0  0  0  0  0  0  0  0  0  0  0
  -12.9413   40.2867  -18.5999 Cl  0  0  0  0  0  0  0  0  0  0  0  0
  -12.4592   44.2190  -15.1917 C   0  0  0  0  0  0  0  0  0  0  0  0
  -13.8619   44.7410  -15.2911 N   0  0  0  0  0  0  0  0  0  0  0  0
  -11.4747   44.8837  -14.2758 C   0  0  0  0  0  0  0  0  0  0  0  0
  -10.8807   46.2098  -14.6484 C   0  0  0  0  0  0  0  0  0  0  0  0
   -9.8962   46.8745  -13.7325 C   0  0  0  0  0  0  0  0  0  0  0  0
   -9.5058   46.2132  -12.4439 C   0  0  0  0  0  0  0  0  0  0  0  0
  -10.0998   44.8872  -12.0713 C   0  0  0  0  0  0  0  0  0  0  0  0
  -11.0843   44.2225  -12.9872 C   0  0  0  0  0  0  0  0  0  0  0  0
  -11.6784   42.8965  -12.6147 F   0  0  0  0  0  0  0  0  0  0  0  0
  -18.6151   39.9714  -20.2316 C   0  0  0  0  0  0  0  0  0  0  0  0
  -17.6306   40.6361  -19.3156 C   0  0  0  0  0  0  0  0  0  0  0  0
  -16.4767   39.8547  -18.7605 O   0  0  0  0  0  0  0  0  0  0  0  0
  -17.7999   42.0822  -18.9548 N   0  0  0  0  0  0  0  0  0  0  0  0
   -9.8642   40.1951  -17.5172 S   0  0  0  0  0  0  0  0  0  0  0  0
   -8.6933   40.6471  -18.3386 C   0  0  0  0  0  0  0  0  0  0  0  0
   -8.8991   41.0935  -19.7558 C   0  0  0  0  0  0  0  0  0  0  0  0
   -7.7282   41.5455  -20.5772 C   0  0  0  0  0  0  0  0  0  0  0  0
   -6.3516   41.5512  -19.9815 C   0  0  0  0  0  0  0  0  0  0  0  0
   -6.1458   41.1048  -18.5644 C   0  0  0  0  0  0  0  0  0  0  0  0
   -7.3167   40.6527  -17.7429 C   0  0  0  0  0  0  0  0  0  0  0  0
   -7.1109   40.2063  -16.3257 N   0  0  0  0  0  0  0  0  0  0  0  0
   -6.7811   38.7730  -16.0314 O   0  0  0  0  0  0  0  0  0  0  0  0
   -7.2350   41.1932  -15.2030 O   0  0  0  0  0  0  0  0  0  0  0  0
 22 23  1  0  0  0
 23 24  2  0  0  0
 23 25  1  0  0  0
 25  1  1  0  0  0
  1  2  2  0  0  0
  2  3  1  0  0  0
  3  4  2  0  0  0
  4  5  1  0  0  0
  5  6  2  0  0  0
  7  5  1  0  0  0
  7  8  1  0  0  0
  8  9  1  0  0  0
  9 10  1  0  0  0
 10 11  1  0  0  0
 11 12  1  0  0  0
 10 26  1  0  0  0
 26 27  1  0  0  0
 27 28  2  0  0  0
 28 29  1  0  0  0
 29 30  2  0  0  0
 30 31  1  0  0  0
 31 32  2  0  0  0
 32 33  1  0  0  0
 33 34  2  0  0  0
 33 35  1  0  0  0
  8 13  1  0  0  0
 13 14  1  0  0  0
 13 15  1  0  0  0
 15 16  2  0  0  0
 16 17  1  0  0  0
 17 18  2  0  0  0
 18 19  1  0  0  0
 19 20  2  0  0  0
 20 21  1  0  0  0
  6  1  1  0  0  0
 14  4  1  0  0  0
 11  7  1  0  0  0
 32 27  1  0  0  0
 20 15  1  0  0  0
M  CHG 1  33   1
M  CHG 1  35  -1
M  END
> <minimizedAffinity>
-7.10964

$$$$



 35 38  0  0  0  0  0  0  0  0999 V2000
  -13.9595   44.0011  -16.6439 S   0  0  0  0  0  0  0  0  0  0  0  0
  -15.0151   44.5834  -15.7515 O   0  0  0  0  0  0  0  0  0  0  0  0
  -12.9038   43.4187  -17.5363 O   0  0  0  0  0  0  0  0  0  0  0  0
  -17.0635   41.4188  -18.6306 C   0  0  0  0  0  0  0  0  0  0  0  0
  -17.4826   42.6303  -17.8516 C   0  0  0  0  0  0  0  0  0  0  0  0
  -16.4479   43.4910  -17.1894 C   0  0  0  0  0  0  0  0  0  0  0  0
  -14.9942   43.1403  -17.3061 C   0  0  0  0  0  0  0  0  0  0  0  0
  -14.5752   41.9289  -18.0851 C   0  0  0  0  0  0  0  0  0  0  0  0
  -15.6098   41.0681  -18.7473 C   0  0  0  0  0  0  0  0  0  0  0  0
  -19.3130   41.1858  -19.9095 N   0  0  0  0  0  0  0  0  0  0  0  0
  -18.0983   40.5581  -19.2928 C   0  0  0  0  0  0  0  0  0  0  0  0
  -17.9182   39.0696  -19.3384 O   0  0  0  0  0  0  0  0  0  0  0  0
  -22.0937   41.0540  -18.7913 C   0  0  0  0  0  0  0  0  0  0  0  0
  -21.7381   40.2592  -20.0126 C   0  0  0  0  0  0  0  0  0  0  0  0
  -22.7727   39.3984  -20.6749 C   0  0  0  0  0  0  0  0  0  0  0  0
  -22.4170   38.6036  -21.8962 C   0  0  0  0  0  0  0  0  0  0  0  0
  -21.0267   38.6694  -22.4553 C   0  0  0  0  0  0  0  0  0  0  0  0
  -19.9921   39.5301  -21.7931 C   0  0  0  0  0  0  0  0  0  0  0  0
  -20.3477   40.3250  -20.5717 C   0  0  0  0  0  0  0  0  0  0  0  0
  -12.9248   44.8618  -15.9817 C   0  0  0  0  0  0  0  0  0  0  0  0
  -12.4291   44.5166  -14.6087 C   0  0  0  0  0  0  0  0  0  0  0  0
  -11.3945   45.3773  -13.9464 C   0  0  0  0  0  0  0  0  0  0  0  0
  -10.8555   46.5833  -14.6572 C   0  0  0  0  0  0  0  0  0  0  0  0
  -11.3512   46.9285  -16.0302 C   0  0  0  0  0  0  0  0  0  0  0  0
  -12.3859   46.0677  -16.6924 C   0  0  0  0  0  0  0  0  0  0  0  0
   -9.8208   47.4440  -13.9949 C   0  0  0  0  0  0  0  0  0  0  0  0
   -8.3697   47.0744  -14.0828 O   0  0  0  0  0  0  0  0  0  0  0  0
  -10.2372   48.6745  -13.2448 N   0  0  0  0  0  0  0  0  0  0  0  0
   -9.2025   49.5352  -12.5826 C   0  0  0  0  0  0  0  0  0  0  0  0
   -8.3621   50.4655  -13.4061 C   0  0  0  0  0  0  0  0  0  0  0  0
   -7.3274   51.3263  -12.7439 C   0  0  0  0  0  0  0  0  0  0  0  0
   -7.1331   51.2566  -11.2582 C   0  0  0  0  0  0  0  0  0  0  0  0
   -7.9735   50.3263  -10.4347 C   0  0  0  0  0  0  0  0  0  0  0  0
   -9.0082   49.4656  -11.0969 C   0  0  0  0  0  0  0  0  0  0  0  0
   -9.8486   48.5352  -10.2733 C   0  0  0  0  0  0  0  0  0  0  0  0
 13 14  1  0  0  0
 14 15  2  0  0  0
 15 16  1  0  0  0
 16 17  2  0  0  0
 17 18  1  0  0  0
 18 19  2  0  0  0
 19 10  1  0  0  0
 10 11  1  0  0  0
 11 12  2  0  0  0
 11  4  1  0  0  0
  4  5  2  0  0  0
  5  6  1  0  0  0
  6  7  2  0  0  0
  7  8  1  0  0  0
  8  9  2  0  0  0
  7  1  1  0  0  0
  1  2  2  0  0  0
  1  3  2  0  0  0
  1 20  1  0  0  0
 20 21  2  0  0  0
 21 22  1  0  0  0
 22 23  2  0  0  0
 23 24  1  0  0  0
 24 25  2  0  0  0
 23 26  1  0  0  0
 26 27  2  0  0  0
 26 28  1  0  0  0
 28 29  1  0  0  0
 29 30  2  0  0  0
 30 31  1  0  0  0
 31 32  2  0  0  0
 32 33  1  0  0  0
 33 34  2  0  0  0
 34 35  1  0  0  0
 19 14  1  0  0  0
  9  4  1  0  0  0
 25 20  1  0  0  0
 34 29  1  0  0  0
M  END
> <minimizedAffinity>
-5.37310

$$$$



 29 31  0  0  0  0  0  0  0  0999 V2000
  -12.7715   44.1597  -14.4903 C   0  0  0  0  0  0  0  0  0  0  0  0
  -12.4745   43.2438  -13.3401 C   0  0  0  0  0  0  0  0  0  0  0  0
  -11.2705   43.4871  -12.4792 C   0  0  0  0  0  0  0  0  0  0  0  0
  -10.3635   44.6463  -12.7685 C   0  0  0  0  0  0  0  0  0  0  0  0
  -10.6605   45.5621  -13.9187 C   0  0  0  0  0  0  0  0  0  0  0  0
  -11.8645   45.3189  -14.7796 C   0  0  0  0  0  0  0  0  0  0  0  0
  -14.1005   44.6052  -16.6778 N   0  0  0  0  0  0  0  0  0  0  0  0
  -13.9755   43.9164  -15.3512 C   0  0  0  0  0  0  0  0  0  0  0  0
  -15.0545   42.9843  -14.8855 O   0  0  0  0  0  0  0  0  0  0  0  0
  -16.4789   45.2922  -17.4660 C   0  0  0  0  0  0  0  0  0  0  0  0
  -15.3045   44.3619  -17.5388 N   0  0  0  0  0  0  0  0  0  0  0  0
  -20.0326   43.9923  -18.6625 C   0  0  0  0  0  0  0  0  0  0  0  0
  -20.0909   44.5623  -20.0488 C   0  0  0  0  0  0  0  0  0  0  0  0
  -18.9452   45.3756  -20.5741 C   0  0  0  0  0  0  0  0  0  0  0  0
  -17.7413   45.6189  -19.7132 C   0  0  0  0  0  0  0  0  0  0  0  0
  -17.6829   45.0489  -18.3270 C   0  0  0  0  0  0  0  0  0  0  0  0
  -18.8286   44.2356  -17.8017 C   0  0  0  0  0  0  0  0  0  0  0  0
  -16.5956   46.4322  -20.2385 Br  0  0  0  0  0  0  0  0  0  0  0  0
   -9.7535   46.7213  -14.2080 S   0  0  0  0  0  0  0  0  0  0  0  0
  -10.9309   47.5271  -14.6709 O   0  0  0  0  0  0  0  0  0  0  0  0
   -8.5760   45.9155  -13.7451 O   0  0  0  0  0  0  0  0  0  0  0  0
   -8.8465   47.8804  -14.4973 N   0  0  0  0  0  0  0  0  0  0  0  0
   -8.5912   48.9148  -13.4413 C   0  0  0  0  0  0  0  0  0  0  0  0
   -9.0365   48.6713  -12.0298 C   0  0  0  0  0  0  0  0  0  0  0  0
   -8.7813   49.7055  -10.9738 C   0  0  0  0  0  0  0  0  0  0  0  0
   -8.0807   50.9833  -11.3293 C   0  0  0  0  0  0  0  0  0  0  0  0
   -7.6354   51.2268  -12.7409 C   0  0  0  0  0  0  0  0  0  0  0  0
   -7.8906   50.1926  -13.7968 C   0  0  0  0  0  0  0  0  0  0  0  0
   -7.8255   52.0177  -10.2734 Cl  0  0  0  0  0  0  0  0  0  0  0  0
 12 13  2  0  0  0
 13 14  1  0  0  0
 14 15  2  0  0  0
 15 16  1  0  0  0
 16 17  2  0  0  0
 16 10  1  0  0  0
 10 11  2  0  0  0
 11  7  1  0  0  0
  7  8  1  0  0  0
  8  9  2  0  0  0
  8  1  1  0  0  0
  1  2  2  0  0  0
  2  3  1  0  0  0
  3  4  2  0  0  0
  4  5  1  0  0  0
  5  6  2  0  0  0
  5 19  1  0  0  0
 19 20  2  0  0  0
 19 21  2  0  0  0
 19 22  1  0  0  0
 22 23  1  0  0  0
 23 24  2  0  0  0
 24 25  1  0  0  0
 25 26  2  0  0  0
 26 27  1  0  0  0
 27 28  2  0  0  0
 26 29  1  0  0  0
 15 18  1  0  0  0
 17 12  1  0  0  0
  6  1  1  0  0  0
 28 23  1  0  0  0
M  END
> <minimizedAffinity>
-6.32853

$$$$



 32 35  0  0  0  0  0  0  0  0999 V2000
   -7.9599   46.4930  -14.7913 C   0  0  0  0  0  0  0  0  0  0  0  0
   -6.9506   45.7306  -15.5976 S   0  0  0  0  0  0  0  0  0  0  0  0
   -7.8630   47.9861  -14.6865 N   0  0  0  0  0  0  0  0  0  0  0  0
  -12.7652   51.5029  -12.4051 C   0  0  0  0  0  0  0  0  0  0  0  0
  -12.1047   51.0369  -13.6686 C   0  0  0  0  0  0  0  0  0  0  0  0
  -10.8896   50.1600  -13.6003 C   0  0  0  0  0  0  0  0  0  0  0  0
  -10.3350   49.7492  -12.2685 C   0  0  0  0  0  0  0  0  0  0  0  0
   -9.1337   48.8849  -12.5133 S   0  0  0  0  0  0  0  0  0  0  0  0
   -8.9459   48.7615  -13.9964 C   0  0  0  0  0  0  0  0  0  0  0  0
  -10.0310   49.5496  -14.6682 C   0  0  0  0  0  0  0  0  0  0  0  0
  -10.9955   50.2152  -11.0051 C   0  0  0  0  0  0  0  0  0  0  0  0
  -12.2106   51.0921  -11.0733 O   0  0  0  0  0  0  0  0  0  0  0  0
  -13.7353   52.1951  -11.4942 C   0  0  0  0  0  0  0  0  0  0  0  0
  -15.0868   52.4534  -13.0810 C   0  0  0  0  0  0  0  0  0  0  0  0
  -13.6567   52.1541  -13.4206 C   0  0  0  0  0  0  0  0  0  0  0  0
  -10.2239   49.7007  -16.1481 C   0  0  0  0  0  0  0  0  0  0  0  0
  -10.4166   49.8519  -17.6279 N   0  0  0  0  0  0  0  0  0  0  0  0
   -9.0662   45.7622  -14.0898 N   0  0  0  0  0  0  0  0  0  0  0  0
  -10.3620   45.5029  -14.7997 C   0  0  0  0  0  0  0  0  0  0  0  0
  -11.5269   44.7311  -14.2545 C   0  0  0  0  0  0  0  0  0  0  0  0
  -12.6052   44.7212  -15.2974 C   0  0  0  0  0  0  0  0  0  0  0  0
  -12.1066   45.4868  -16.4869 C   0  0  0  0  0  0  0  0  0  0  0  0
  -10.7203   45.9700  -16.1794 S   0  0  0  0  0  0  0  0  0  0  0  0
  -12.9795   45.6451  -17.6965 C   0  0  0  0  0  0  0  0  0  0  0  0
  -14.3509   45.0378  -17.7164 O   0  0  0  0  0  0  0  0  0  0  0  0
  -14.8494   44.2721  -16.5268 C   0  0  0  0  0  0  0  0  0  0  0  0
  -13.9766   44.1138  -15.3173 C   0  0  0  0  0  0  0  0  0  0  0  0
  -15.7610   43.4639  -15.6517 C   0  0  0  0  0  0  0  0  0  0  0  0
  -16.0388   44.1498  -17.4325 C   0  0  0  0  0  0  0  0  0  0  0  0
  -17.2493   45.0046  -17.2006 C   0  0  0  0  0  0  0  0  0  0  0  0
  -11.6007   44.0830  -12.9038 C   0  0  0  0  0  0  0  0  0  0  0  0
  -11.6745   43.4348  -11.5531 N   0  0  0  0  0  0  0  0  0  0  0  0
 14 15  1  0  0  0
 15  4  1  0  0  0
  4  5  1  0  0  0
  5  6  1  0  0  0
  6  7  2  0  0  0
  7  8  1  0  0  0
  8  9  1  0  0  0
  9 10  2  0  0  0
 10 16  1  0  0  0
 16 17  3  0  0  0
  9  3  1  0  0  0
  3  1  1  0  0  0
  1  2  2  0  0  0
  1 18  1  0  0  0
 18 19  1  0  0  0
 19 20  2  0  0  0
 20 21  1  0  0  0
 21 22  2  0  0  0
 22 23  1  0  0  0
 22 24  1  0  0  0
 24 25  1  0  0  0
 25 26  1  0  0  0
 26 27  1  0  0  0
 26 28  1  0  0  0
 26 29  1  0  0  0
 29 30  1  0  0  0
 20 31  1  0  0  0
 31 32  3  0  0  0
  7 11  1  0  0  0
 11 12  1  0  0  0
  4 13  1  0  0  0
 12  4  1  0  0  0
 10  6  1  0  0  0
 23 19  1  0  0  0
 27 21  1  0  0  0
M  END
> <minimizedAffinity>
-6.33653

$$$$



 33 36  0  0  0  0  0  0  0  0999 V2000
  -12.4621   45.4939  -16.6657 C   0  0  0  0  0  0  0  0  0  0  0  0
  -13.8244   45.0438  -17.1033 C   0  0  0  0  0  0  0  0  0  0  0  0
  -14.6177   44.1072  -16.2410 N   0  0  0  0  0  0  0  0  0  0  0  0
  -15.9234   43.8378  -16.9286 C   0  0  0  0  0  0  0  0  0  0  0  0
  -17.0224   42.9535  -16.4185 O   0  0  0  0  0  0  0  0  0  0  0  0
  -15.9370   44.6079  -18.2157 C   0  0  0  0  0  0  0  0  0  0  0  0
  -17.0520   44.6289  -19.2188 C   0  0  0  0  0  0  0  0  0  0  0  0
  -14.6398   45.3532  -18.3237 S   0  0  0  0  0  0  0  0  0  0  0  0
  -14.0487   43.6207  -14.9412 C   0  0  0  0  0  0  0  0  0  0  0  0
  -12.6863   44.0708  -14.5037 C   0  0  0  0  0  0  0  0  0  0  0  0
  -11.8931   45.0073  -15.3659 C   0  0  0  0  0  0  0  0  0  0  0  0
  -14.8420   42.6840  -14.0790 N   0  0  0  0  0  0  0  0  0  0  0  0
  -18.2966   43.8283  -18.9737 C   0  0  0  0  0  0  0  0  0  0  0  0
  -19.4601   44.4504  -18.2601 C   0  0  0  0  0  0  0  0  0  0  0  0
  -20.7048   43.6499  -18.0149 C   0  0  0  0  0  0  0  0  0  0  0  0
  -20.7858   42.2272  -18.4833 C   0  0  0  0  0  0  0  0  0  0  0  0
  -19.6223   41.6051  -19.1969 C   0  0  0  0  0  0  0  0  0  0  0  0
  -18.3777   42.4056  -19.4421 C   0  0  0  0  0  0  0  0  0  0  0  0
  -17.2142   41.7835  -20.1556 Cl  0  0  0  0  0  0  0  0  0  0  0  0
  -10.5307   45.4575  -14.9283 C   0  0  0  0  0  0  0  0  0  0  0  0
   -9.3129   44.7028  -15.3727 C   0  0  0  0  0  0  0  0  0  0  0  0
   -7.9506   45.1529  -14.9352 C   0  0  0  0  0  0  0  0  0  0  0  0
   -7.8060   46.3576  -14.0533 C   0  0  0  0  0  0  0  0  0  0  0  0
   -9.0237   47.1123  -13.6089 C   0  0  0  0  0  0  0  0  0  0  0  0
  -10.3861   46.6621  -14.0465 C   0  0  0  0  0  0  0  0  0  0  0  0
   -8.8792   48.3169  -12.7271 Cl  0  0  0  0  0  0  0  0  0  0  0  0
  -11.6688   46.4305  -17.5279 C   0  0  0  0  0  0  0  0  0  0  0  0
  -11.0980   45.9502  -18.8292 O   0  0  0  0  0  0  0  0  0  0  0  0
  -11.4462   47.8475  -17.0887 O   0  0  0  0  0  0  0  0  0  0  0  0
   -8.8744   48.1646  -17.2752 C   0  0  0  0  0  0  0  0  0  0  0  0
  -10.2662   48.6161  -17.6051 C   0  0  0  0  0  0  0  0  0  0  0  0
  -12.1173   43.5842  -13.2038 C   0  0  0  0  0  0  0  0  0  0  0  0
  -11.5483   43.0977  -11.9040 N   0  0  0  0  0  0  0  0  0  0  0  0
 30 31  1  0  0  0
 31 29  1  0  0  0
 29 27  1  0  0  0
 27 28  2  0  0  0
 27  1  1  0  0  0
  1  2  2  0  0  0
  2  3  1  0  0  0
  3  4  1  0  0  0
  4  5  2  0  0  0
  4  6  1  0  0  0
  6  7  2  0  0  0
  7 13  1  0  0  0
 13 14  2  0  0  0
 14 15  1  0  0  0
 15 16  2  0  0  0
 16 17  1  0  0  0
 17 18  2  0  0  0
 18 19  1  0  0  0
  6  8  1  0  0  0
  3  9  1  0  0  0
  9 10  2  0  0  0
 10 11  1  0  0  0
 11 20  1  0  0  0
 20 21  2  0  0  0
 21 22  1  0  0  0
 22 23  2  0  0  0
 23 24  1  0  0  0
 24 25  2  0  0  0
 24 26  1  0  0  0
 10 32  1  0  0  0
 32 33  3  0  0  0
  9 12  1  0  0  0
 11  1  1  0  0  0
  8  2  1  0  0  0
 18 13  1  0  0  0
 25 20  1  0  0  0
M  END
> <minimizedAffinity>
-5.83307

$$$$



 36 40  0  0  0  0  0  0  0  0999 V2000
  -22.0968   42.3261  -18.8538 C   0  0  0  0  0  0  0  0  0  0  0  0
  -22.0862   43.6400  -18.1303 C   0  0  0  0  0  0  0  0  0  0  0  0
  -20.7865   44.2363  -17.6773 C   0  0  0  0  0  0  0  0  0  0  0  0
  -19.4974   43.5188  -17.9479 C   0  0  0  0  0  0  0  0  0  0  0  0
  -19.5080   42.2049  -18.6714 C   0  0  0  0  0  0  0  0  0  0  0  0
  -20.8076   41.6086  -19.1244 C   0  0  0  0  0  0  0  0  0  0  0  0
  -18.2188   41.4873  -18.9420 C   0  0  0  0  0  0  0  0  0  0  0  0
  -18.2294   40.1734  -19.6655 O   0  0  0  0  0  0  0  0  0  0  0  0
  -16.9191   42.0836  -18.4891 N   0  0  0  0  0  0  0  0  0  0  0  0
  -16.9086   43.3976  -17.7655 C   0  0  0  0  0  0  0  0  0  0  0  0
  -18.1977   44.1151  -17.4949 N   0  0  0  0  0  0  0  0  0  0  0  0
  -15.6300   41.3661  -18.7596 C   0  0  0  0  0  0  0  0  0  0  0  0
  -14.8910   41.6093  -20.0422 C   0  0  0  0  0  0  0  0  0  0  0  0
  -13.6019   40.8918  -20.3127 C   0  0  0  0  0  0  0  0  0  0  0  0
  -13.0517   39.9309  -19.3008 C   0  0  0  0  0  0  0  0  0  0  0  0
  -13.7905   39.6877  -18.0183 C   0  0  0  0  0  0  0  0  0  0  0  0
  -15.0797   40.4052  -17.7477 C   0  0  0  0  0  0  0  0  0  0  0  0
  -11.7626   39.2134  -19.5714 F   0  0  0  0  0  0  0  0  0  0  0  0
  -15.6089   43.9939  -17.3125 C   0  0  0  0  0  0  0  0  0  0  0  0
  -14.8063   44.8446  -18.2518 C   0  0  0  0  0  0  0  0  0  0  0  0
  -13.5066   45.4410  -17.7988 C   0  0  0  0  0  0  0  0  0  0  0  0
  -13.0095   45.1866  -16.4066 C   0  0  0  0  0  0  0  0  0  0  0  0
  -13.8121   44.3359  -15.4674 C   0  0  0  0  0  0  0  0  0  0  0  0
  -15.1118   43.7396  -15.9204 C   0  0  0  0  0  0  0  0  0  0  0  0
  -13.3150   44.0816  -14.0753 O   0  0  0  0  0  0  0  0  0  0  0  0
  -11.9963   43.3990  -13.8627 C   0  0  0  0  0  0  0  0  0  0  0  0
  -11.1253   43.0674  -15.0382 C   0  0  0  0  0  0  0  0  0  0  0  0
   -9.7883   43.7298  -15.1916 O   0  0  0  0  0  0  0  0  0  0  0  0
  -11.5916   42.0734  -16.0602 N   0  0  0  0  0  0  0  0  0  0  0  0
  -10.7207   41.7417  -17.2356 C   0  0  0  0  0  0  0  0  0  0  0  0
   -9.7908   40.5665  -17.1722 C   0  0  0  0  0  0  0  0  0  0  0  0
   -8.9200   40.2349  -18.3477 C   0  0  0  0  0  0  0  0  0  0  0  0
   -8.9791   41.0785  -19.5866 C   0  0  0  0  0  0  0  0  0  0  0  0
   -9.9090   42.2537  -19.6500 C   0  0  0  0  0  0  0  0  0  0  0  0
  -10.7798   42.5854  -18.4746 C   0  0  0  0  0  0  0  0  0  0  0  0
   -8.1083   40.7468  -20.7620 F   0  0  0  0  0  0  0  0  0  0  0  0
  1  2  2  0  0  0
  2  3  1  0  0  0
  3  4  2  0  0  0
  4  5  1  0  0  0
  5  6  2  0  0  0
  5  7  1  0  0  0
  7  8  2  0  0  0
  7  9  1  0  0  0
  9 10  1  0  0  0
 10 11  1  0  0  0
 10 19  1  0  0  0
 19 20  2  0  0  0
 20 21  1  0  0  0
 21 22  2  0  0  0
 22 23  1  0  0  0
 23 24  2  0  0  0
 23 25  1  0  0  0
 25 26  1  0  0  0
 26 27  1  0  0  0
 27 28  2  0  0  0
 27 29  1  0  0  0
 29 30  1  0  0  0
 30 31  2  0  0  0
 31 32  1  0  0  0
 32 33  2  0  0  0
 33 34  1  0  0  0
 34 35  2  0  0  0
 33 36  1  0  0  0
  9 12  1  0  0  0
 12 13  2  0  0  0
 13 14  1  0  0  0
 14 15  2  0  0  0
 15 16  1  0  0  0
 16 17  2  0  0  0
 15 18  1  0  0  0
  6  1  1  0  0  0
 11  4  1  0  0  0
 24 19  1  0  0  0
 35 30  1  0  0  0
 17 12  1  0  0  0
M  END
> <minimizedAffinity>
-5.88564

$$$$



 34 38  0  0  0  0  0  0  0  0999 V2000
  -16.8162   44.4049  -18.0025 C   0  0  0  0  0  0  0  0  0  0  0  0
  -15.6302   45.0776  -18.6278 C   0  0  0  0  0  0  0  0  0  0  0  0
  -15.4686   45.8385  -19.9103 C   0  0  0  0  0  0  0  0  0  0  0  0
  -14.0394   46.2830  -20.0086 C   0  0  0  0  0  0  0  0  0  0  0  0
  -13.3176   45.7967  -18.7869 C   0  0  0  0  0  0  0  0  0  0  0  0
  -14.3009   45.0518  -17.9335 C   0  0  0  0  0  0  0  0  0  0  0  0
  -14.1574   44.3533  -16.6138 C   0  0  0  0  0  0  0  0  0  0  0  0
  -12.8281   44.3274  -15.9195 C   0  0  0  0  0  0  0  0  0  0  0  0
  -12.6846   43.6289  -14.5998 C   0  0  0  0  0  0  0  0  0  0  0  0
  -13.8706   42.9562  -13.9745 C   0  0  0  0  0  0  0  0  0  0  0  0
  -15.1999   42.9821  -14.6688 C   0  0  0  0  0  0  0  0  0  0  0  0
  -15.3434   43.6806  -15.9885 C   0  0  0  0  0  0  0  0  0  0  0  0
  -16.6727   43.7064  -16.6828 N   0  0  0  0  0  0  0  0  0  0  0  0
  -20.8043   44.4824  -20.0854 C   0  0  0  0  0  0  0  0  0  0  0  0
  -19.5569   44.8339  -20.8406 C   0  0  0  0  0  0  0  0  0  0  0  0
  -18.2275   44.8081  -20.1462 C   0  0  0  0  0  0  0  0  0  0  0  0
  -18.1456   44.4307  -18.6968 C   0  0  0  0  0  0  0  0  0  0  0  0
  -19.3930   44.0792  -17.9416 C   0  0  0  0  0  0  0  0  0  0  0  0
  -20.7224   44.1050  -18.6360 C   0  0  0  0  0  0  0  0  0  0  0  0
  -22.1337   44.5082  -20.7798 C   0  0  0  0  0  0  0  0  0  0  0  0
  -23.3128   43.8109  -20.1684 O   0  0  0  0  0  0  0  0  0  0  0  0
  -22.3066   44.4597  -23.3716 C   0  0  0  0  0  0  0  0  0  0  0  0
  -22.2840   45.2311  -22.0854 O   0  0  0  0  0  0  0  0  0  0  0  0
  -11.3552   43.6031  -13.9055 S   0  0  0  0  0  0  0  0  0  0  0  0
  -12.0211   43.9841  -12.6165 O   0  0  0  0  0  0  0  0  0  0  0  0
  -10.6894   43.2222  -15.1944 O   0  0  0  0  0  0  0  0  0  0  0  0
  -10.0258   43.5774  -13.2112 N   0  0  0  0  0  0  0  0  0  0  0  0
   -8.9486   44.5386  -13.6179 C   0  0  0  0  0  0  0  0  0  0  0  0
   -7.5652   44.0360  -13.9075 C   0  0  0  0  0  0  0  0  0  0  0  0
   -6.4879   44.9973  -14.3143 C   0  0  0  0  0  0  0  0  0  0  0  0
   -6.7939   46.4610  -14.4314 C   0  0  0  0  0  0  0  0  0  0  0  0
   -8.1772   46.9636  -14.1418 C   0  0  0  0  0  0  0  0  0  0  0  0
   -9.2546   46.0024  -13.7351 C   0  0  0  0  0  0  0  0  0  0  0  0
   -5.7166   47.4223  -14.8382 F   0  0  0  0  0  0  0  0  0  0  0  0
 22 23  1  0  0  0
 23 20  1  0  0  0
 20 21  2  0  0  0
 20 14  1  0  0  0
 14 15  2  0  0  0
 15 16  1  0  0  0
 16 17  2  0  0  0
 17 18  1  0  0  0
 18 19  2  0  0  0
  1 17  1  0  0  0
  1  2  1  0  0  0
  2  3  1  0  0  0
  3  4  1  0  0  0
  4  5  2  0  0  0
  6  5  1  0  0  0
  6  7  1  0  0  0
  7  8  2  0  0  0
  8  9  1  0  0  0
  9 10  2  0  0  0
 10 11  1  0  0  0
 11 12  2  0  0  0
 12 13  1  0  0  0
  9 24  1  0  0  0
 24 25  2  0  0  0
 24 26  2  0  0  0
 24 27  1  0  0  0
 27 28  1  0  0  0
 28 29  2  0  0  0
 29 30  1  0  0  0
 30 31  2  0  0  0
 31 32  1  0  0  0
 32 33  2  0  0  0
 31 34  1  0  0  0
 19 14  1  0  0  0
 13  1  1  0  0  0
  6  2  1  0  0  0
 12  7  1  0  0  0
 33 28  1  0  0  0
M  END
> <minimizedAffinity>
-6.95246

$$$$



 32 36  0  0  0  0  0  0  0  0999 V2000
  -19.9405   41.8246  -19.8001 C   0  0  0  0  0  0  0  0  0  0  0  0
  -20.9788   40.7752  -19.5345 C   0  0  0  0  0  0  0  0  0  0  0  0
  -22.0171   40.9986  -18.4752 C   0  0  0  0  0  0  0  0  0  0  0  0
  -22.0171   42.2715  -17.6816 C   0  0  0  0  0  0  0  0  0  0  0  0
  -20.9787   43.3209  -17.9473 C   0  0  0  0  0  0  0  0  0  0  0  0
  -19.9404   43.0975  -19.0065 C   0  0  0  0  0  0  0  0  0  0  0  0
  -23.0554   42.4949  -16.6223 Br  0  0  0  0  0  0  0  0  0  0  0  0
  -18.9021   44.1469  -19.2722 C   0  0  0  0  0  0  0  0  0  0  0  0
  -17.6901   44.2422  -18.3935 C   0  0  0  0  0  0  0  0  0  0  0  0
  -17.5165   43.2880  -17.2492 C   0  0  0  0  0  0  0  0  0  0  0  0
  -16.3045   43.3833  -16.3705 C   0  0  0  0  0  0  0  0  0  0  0  0
  -15.2662   44.4327  -16.6362 C   0  0  0  0  0  0  0  0  0  0  0  0
  -15.4398   45.3868  -17.7805 C   0  0  0  0  0  0  0  0  0  0  0  0
  -16.6518   45.2915  -18.6591 C   0  0  0  0  0  0  0  0  0  0  0  0
  -16.8255   46.2457  -19.8035 O   0  0  0  0  0  0  0  0  0  0  0  0
  -18.0374   46.1505  -20.6822 C   0  0  0  0  0  0  0  0  0  0  0  0
  -19.0757   45.1010  -20.4165 C   0  0  0  0  0  0  0  0  0  0  0  0
  -18.2110   47.1046  -21.8265 N   0  0  0  0  0  0  0  0  0  0  0  0
  -14.1845   44.2854  -15.6075 O   0  0  0  0  0  0  0  0  0  0  0  0
  -14.5543   43.1450  -14.7061 C   0  0  0  0  0  0  0  0  0  0  0  0
  -15.8646   42.5874  -15.1776 O   0  0  0  0  0  0  0  0  0  0  0  0
  -20.2877   45.0057  -21.2951 C   0  0  0  0  0  0  0  0  0  0  0  0
  -21.4997   44.9105  -22.1738 N   0  0  0  0  0  0  0  0  0  0  0  0
  -18.9022   41.6012  -20.8594 O   0  0  0  0  0  0  0  0  0  0  0  0
  -17.8275   40.5757  -20.6516 C   0  0  0  0  0  0  0  0  0  0  0  0
  -14.7454   40.5529  -18.1516 C   0  0  0  0  0  0  0  0  0  0  0  0
  -13.9679   41.7352  -18.6492 C   0  0  0  0  0  0  0  0  0  0  0  0
  -14.4770   42.5310  -19.8144 C   0  0  0  0  0  0  0  0  0  0  0  0
  -15.7636   42.1445  -20.4818 C   0  0  0  0  0  0  0  0  0  0  0  0
  -16.5410   40.9622  -19.9842 C   0  0  0  0  0  0  0  0  0  0  0  0
  -16.0319   40.1663  -18.8190 C   0  0  0  0  0  0  0  0  0  0  0  0
  -16.2725   42.9404  -21.6470 F   0  0  0  0  0  0  0  0  0  0  0  0
 26 27  2  0  0  0
 27 28  1  0  0  0
 28 29  2  0  0  0
 29 30  1  0  0  0
 30 31  2  0  0  0
 30 25  1  0  0  0
 25 24  1  0  0  0
 24  1  1  0  0  0
  1  2  2  0  0  0
  2  3  1  0  0  0
  3  4  2  0  0  0
  4  5  1  0  0  0
  5  6  2  0  0  0
  8  6  1  0  0  0
  8  9  1  0  0  0
  9 10  2  0  0  0
 10 11  1  0  0  0
 11 12  2  0  0  0
 12 13  1  0  0  0
 13 14  2  0  0  0
 14 15  1  0  0  0
 15 16  1  0  0  0
 16 17  2  0  0  0
 17 22  1  0  0  0
 22 23  3  0  0  0
 16 18  1  0  0  0
 12 19  1  0  0  0
 19 20  1  0  0  0
 20 21  1  0  0  0
  4  7  1  0  0  0
 29 32  1  0  0  0
 31 26  1  0  0  0
  6  1  1  0  0  0
 17  8  1  0  0  0
 14  9  1  0  0  0
 21 11  1  0  0  0
M  END
> <minimizedAffinity>
-5.77863

$$$$



 36 40  0  0  0  0  0  0  0  0999 V2000
  -15.5928   43.6000  -17.3666 C   0  0  0  0  0  0  0  0  0  0  0  0
  -15.4387   42.4017  -18.2557 C   0  0  0  0  0  0  0  0  0  0  0  0
  -16.6425   41.7982  -18.9164 C   0  0  0  0  0  0  0  0  0  0  0  0
  -18.0005   42.3930  -18.6880 C   0  0  0  0  0  0  0  0  0  0  0  0
  -19.3211   41.9505  -19.2451 C   0  0  0  0  0  0  0  0  0  0  0  0
  -19.6097   40.8040  -20.1683 N   0  0  0  0  0  0  0  0  0  0  0  0
  -18.6492   39.8168  -20.7623 C   0  0  0  0  0  0  0  0  0  0  0  0
  -19.3551   38.8239  -21.6375 C   0  0  0  0  0  0  0  0  0  0  0  0
  -18.5745   37.7465  -22.3302 C   0  0  0  0  0  0  0  0  0  0  0  0
  -17.0881   37.6620  -22.1477 C   0  0  0  0  0  0  0  0  0  0  0  0
  -16.3822   38.6549  -21.2726 C   0  0  0  0  0  0  0  0  0  0  0  0
  -17.1628   39.7322  -20.5799 C   0  0  0  0  0  0  0  0  0  0  0  0
  -16.2698   40.6141  -19.7583 N   0  0  0  0  0  0  0  0  0  0  0  0
  -18.1546   43.5912  -17.7989 C   0  0  0  0  0  0  0  0  0  0  0  0
  -19.5126   44.1859  -17.5706 O   0  0  0  0  0  0  0  0  0  0  0  0
  -16.9507   44.1947  -17.1382 C   0  0  0  0  0  0  0  0  0  0  0  0
  -20.5101   42.7618  -18.8234 C   0  0  0  0  0  0  0  0  0  0  0  0
  -21.3272   42.3357  -17.6397 C   0  0  0  0  0  0  0  0  0  0  0  0
  -22.5162   43.1471  -17.2180 C   0  0  0  0  0  0  0  0  0  0  0  0
  -22.8883   44.3845  -17.9798 C   0  0  0  0  0  0  0  0  0  0  0  0
  -22.0712   44.8106  -19.1635 C   0  0  0  0  0  0  0  0  0  0  0  0
  -20.8822   43.9992  -19.5852 C   0  0  0  0  0  0  0  0  0  0  0  0
  -20.0652   44.4253  -20.7688 F   0  0  0  0  0  0  0  0  0  0  0  0
  -23.3332   42.7210  -16.0344 F   0  0  0  0  0  0  0  0  0  0  0  0
  -12.8953   44.5144  -14.6030 C   0  0  0  0  0  0  0  0  0  0  0  0
  -14.0993   43.9109  -15.2636 C   0  0  0  0  0  0  0  0  0  0  0  0
  -14.3889   44.2034  -16.7060 C   0  0  0  0  0  0  0  0  0  0  0  0
  -13.4746   45.0994  -17.4878 C   0  0  0  0  0  0  0  0  0  0  0  0
  -12.2707   45.7028  -16.8273 C   0  0  0  0  0  0  0  0  0  0  0  0
  -11.9810   45.4103  -15.3849 C   0  0  0  0  0  0  0  0  0  0  0  0
  -11.4441   43.3477  -12.7913 C   0  0  0  0  0  0  0  0  0  0  0  0
  -12.6057   44.2219  -13.1607 O   0  0  0  0  0  0  0  0  0  0  0  0
  -10.7771   46.0138  -14.7244 O   0  0  0  0  0  0  0  0  0  0  0  0
  -10.7276   47.4895  -14.4596 C   0  0  0  0  0  0  0  0  0  0  0  0
  -11.3564   46.5988  -17.6092 O   0  0  0  0  0  0  0  0  0  0  0  0
  -11.6431   46.8870  -19.0531 C   0  0  0  0  0  0  0  0  0  0  0  0
 31 32  1  0  0  0
 32 25  1  0  0  0
 25 26  2  0  0  0
 26 27  1  0  0  0
 27 28  2  0  0  0
 28 29  1  0  0  0
 29 30  2  0  0  0
 30 33  1  0  0  0
 33 34  1  0  0  0
 29 35  1  0  0  0
 35 36  1  0  0  0
  1 27  1  0  0  0
  1  2  1  0  0  0
  2  3  1  0  0  0
  3  4  2  0  0  0
  4  5  1  0  0  0
  5  6  1  0  0  0
  6  7  1  0  0  0
  7  8  2  0  0  0
  8  9  1  0  0  0
  9 10  2  0  0  0
 10 11  1  0  0  0
 11 12  2  0  0  0
 12 13  1  0  0  0
  5 17  1  0  0  0
 17 18  2  0  0  0
 18 19  1  0  0  0
 19 20  2  0  0  0
 20 21  1  0  0  0
 21 22  2  0  0  0
 22 23  1  0  0  0
 19 24  1  0  0  0
  4 14  1  0  0  0
 14 15  2  0  0  0
 14 16  1  0  0  0
 30 25  1  0  0  0
 16  1  1  0  0  0
 13  3  1  0  0  0
 12  7  1  0  0  0
 22 17  1  0  0  0
M  END
> <minimizedAffinity>
-6.68145

$$$$



 30 32  0  0  0  0  0  0  0  0999 V2000
  -13.1295   43.8124  -14.5475 C   0  0  0  0  0  0  0  0  0  0  0  0
  -12.4420   44.9753  -15.1995 C   0  0  0  0  0  0  0  0  0  0  0  0
  -11.1554   45.4992  -14.6337 C   0  0  0  0  0  0  0  0  0  0  0  0
  -10.5563   44.8603  -13.4160 C   0  0  0  0  0  0  0  0  0  0  0  0
  -11.2438   43.6974  -12.7641 C   0  0  0  0  0  0  0  0  0  0  0  0
  -12.5303   43.1735  -13.3298 C   0  0  0  0  0  0  0  0  0  0  0  0
  -14.7502   43.5205  -16.5571 N   0  0  0  0  0  0  0  0  0  0  0  0
  -14.4161   43.2884  -15.1133 C   0  0  0  0  0  0  0  0  0  0  0  0
  -15.3686   42.5323  -14.2353 O   0  0  0  0  0  0  0  0  0  0  0  0
  -17.0793   45.3700  -16.9505 C   0  0  0  0  0  0  0  0  0  0  0  0
  -17.2013   43.9212  -17.3196 C   0  0  0  0  0  0  0  0  0  0  0  0
  -16.0368   42.9965  -17.1228 N   0  0  0  0  0  0  0  0  0  0  0  0
  -18.4879   43.3972  -17.8853 C   0  0  0  0  0  0  0  0  0  0  0  0
  -19.7416   44.2140  -17.7793 C   0  0  0  0  0  0  0  0  0  0  0  0
  -21.0282   43.6900  -18.3451 C   0  0  0  0  0  0  0  0  0  0  0  0
  -21.0611   42.3492  -19.0168 C   0  0  0  0  0  0  0  0  0  0  0  0
  -19.8075   41.5324  -19.1228 C   0  0  0  0  0  0  0  0  0  0  0  0
  -18.5208   42.0564  -18.5570 C   0  0  0  0  0  0  0  0  0  0  0  0
  -22.3477   41.8251  -19.5825 Cl  0  0  0  0  0  0  0  0  0  0  0  0
   -9.2697   45.3843  -12.8502 N   0  0  0  0  0  0  0  0  0  0  0  0
   -8.9749   46.8544  -12.8936 S   0  0  0  0  0  0  0  0  0  0  0  0
   -8.1834   46.6585  -14.1526 O   0  0  0  0  0  0  0  0  0  0  0  0
   -9.7665   47.0503  -11.6347 O   0  0  0  0  0  0  0  0  0  0  0  0
   -8.6802   48.3246  -12.9370 C   0  0  0  0  0  0  0  0  0  0  0  0
   -8.9072   49.1712  -11.7197 C   0  0  0  0  0  0  0  0  0  0  0  0
   -8.6124   50.6413  -11.7630 C   0  0  0  0  0  0  0  0  0  0  0  0
   -8.0908   51.2648  -13.0236 C   0  0  0  0  0  0  0  0  0  0  0  0
   -7.8638   50.4181  -14.2408 C   0  0  0  0  0  0  0  0  0  0  0  0
   -8.1585   48.9480  -14.1975 C   0  0  0  0  0  0  0  0  0  0  0  0
   -7.7960   52.7349  -13.0669 Br  0  0  0  0  0  0  0  0  0  0  0  0
 10 11  1  0  0  0
 11 12  2  0  0  0
 12  7  1  0  0  0
  7  8  1  0  0  0
  8  9  2  0  0  0
  8  1  1  0  0  0
  1  2  2  0  0  0
  2  3  1  0  0  0
  3  4  2  0  0  0
  4  5  1  0  0  0
  5  6  2  0  0  0
  4 20  1  0  0  0
 20 21  1  0  0  0
 21 22  2  0  0  0
 21 23  2  0  0  0
 21 24  1  0  0  0
 24 25  2  0  0  0
 25 26  1  0  0  0
 26 27  2  0  0  0
 27 28  1  0  0  0
 28 29  2  0  0  0
 27 30  1  0  0  0
 11 13  1  0  0  0
 13 14  2  0  0  0
 14 15  1  0  0  0
 15 16  2  0  0  0
 16 17  1  0  0  0
 17 18  2  0  0  0
 16 19  1  0  0  0
  6  1  1  0  0  0
 29 24  1  0  0  0
 18 13  1  0  0  0
M  END
> <minimizedAffinity>
-6.05675

$$$$



 33 36  0  0  0  0  0  0  0  0999 V2000
  -16.3061   43.8479  -19.0286 N   0  0  0  0  0  0  0  0  0  0  0  0
  -17.7747   43.5755  -19.1666 C   0  0  0  0  0  0  0  0  0  0  0  0
  -18.2586   42.5545  -20.1532 O   0  0  0  0  0  0  0  0  0  0  0  0
  -18.7594   44.3240  -18.3180 N   0  0  0  0  0  0  0  0  0  0  0  0
  -20.2279   44.0516  -18.4560 C   0  0  0  0  0  0  0  0  0  0  0  0
  -20.9599   44.4924  -19.6888 C   0  0  0  0  0  0  0  0  0  0  0  0
  -22.4285   44.2200  -19.8268 C   0  0  0  0  0  0  0  0  0  0  0  0
  -23.1651   43.5066  -18.7319 C   0  0  0  0  0  0  0  0  0  0  0  0
  -22.4331   43.0658  -17.4991 C   0  0  0  0  0  0  0  0  0  0  0  0
  -20.9645   43.3383  -17.3612 C   0  0  0  0  0  0  0  0  0  0  0  0
  -23.1697   42.3525  -16.4043 Cl  0  0  0  0  0  0  0  0  0  0  0  0
  -15.3214   43.0994  -19.8772 C   0  0  0  0  0  0  0  0  0  0  0  0
   -9.5659   40.3423  -17.3233 C   0  0  0  0  0  0  0  0  0  0  0  0
   -9.2305   41.6365  -18.0035 C   0  0  0  0  0  0  0  0  0  0  0  0
  -10.3146   42.4467  -18.6503 C   0  0  0  0  0  0  0  0  0  0  0  0
  -11.7340   41.9628  -18.6169 C   0  0  0  0  0  0  0  0  0  0  0  0
  -12.8181   42.7731  -19.2638 C   0  0  0  0  0  0  0  0  0  0  0  0
  -14.2374   42.2892  -19.2304 C   0  0  0  0  0  0  0  0  0  0  0  0
  -14.5728   40.9950  -18.5501 C   0  0  0  0  0  0  0  0  0  0  0  0
  -15.9922   40.5111  -18.5167 O   0  0  0  0  0  0  0  0  0  0  0  0
  -13.4888   40.1848  -17.9033 N   0  0  0  0  0  0  0  0  0  0  0  0
  -12.0693   40.6687  -17.9367 C   0  0  0  0  0  0  0  0  0  0  0  0
  -10.9854   39.8584  -17.2899 C   0  0  0  0  0  0  0  0  0  0  0  0
   -7.2343   40.2047  -16.1856 C   0  0  0  0  0  0  0  0  0  0  0  0
   -8.4819   39.5321  -16.6764 O   0  0  0  0  0  0  0  0  0  0  0  0
  -15.8222   44.8689  -18.0420 C   0  0  0  0  0  0  0  0  0  0  0  0
  -14.9627   44.4475  -16.8872 C   0  0  0  0  0  0  0  0  0  0  0  0
  -15.4727   43.4383  -15.9016 C   0  0  0  0  0  0  0  0  0  0  0  0
  -14.6131   43.0169  -14.7468 C   0  0  0  0  0  0  0  0  0  0  0  0
  -13.2435   43.6047  -14.5776 C   0  0  0  0  0  0  0  0  0  0  0  0
  -12.7335   44.6139  -15.5631 C   0  0  0  0  0  0  0  0  0  0  0  0
  -13.5931   45.0354  -16.7179 C   0  0  0  0  0  0  0  0  0  0  0  0
  -12.3840   43.1833  -13.4228 Cl  0  0  0  0  0  0  0  0  0  0  0  0
 24 25  1  0  0  0
 25 13  1  0  0  0
 13 14  2  0  0  0
 14 15  1  0  0  0
 15 16  2  0  0  0
 16 17  1  0  0  0
 17 18  2  0  0  0
 18 19  1  0  0  0
 19 20  2  0  0  0
 19 21  1  0  0  0
 21 22  1  0  0  0
 22 23  2  0  0  0
 18 12  1  0  0  0
 12  1  1  0  0  0
  1 26  1  0  0  0
 26 27  1  0  0  0
 27 28  2  0  0  0
 28 29  1  0  0  0
 29 30  2  0  0  0
 30 31  1  0  0  0
 31 32  2  0  0  0
 30 33  1  0  0  0
  1  2  1  0  0  0
  2  3  2  0  0  0
  2  4  1  0  0  0
  4  5  1  0  0  0
  5  6  2  0  0  0
  6  7  1  0  0  0
  7  8  2  0  0  0
  8  9  1  0  0  0
  9 10  2  0  0  0
  9 11  1  0  0  0
 23 13  1  0  0  0
 22 16  1  0  0  0
 32 27  1  0  0  0
 10  5  1  0  0  0
M  END
> <minimizedAffinity>
-6.63440

$$$$



 27 29  0  0  0  0  0  0  0  0999 V2000
  -10.6718   45.3408  -18.5592 C   0  0  0  0  0  0  0  0  0  0  0  0
  -10.1499   45.4448  -19.9616 O   0  0  0  0  0  0  0  0  0  0  0  0
  -10.9090   43.9929  -17.9452 N   0  0  0  0  0  0  0  0  0  0  0  0
  -10.6242   42.7490  -18.7335 N   0  0  0  0  0  0  0  0  0  0  0  0
   -9.5817   41.7814  -18.2573 C   0  0  0  0  0  0  0  0  0  0  0  0
   -8.7480   41.9227  -17.0184 C   0  0  0  0  0  0  0  0  0  0  0  0
   -8.6976   42.9823  -15.9580 C   0  0  0  0  0  0  0  0  0  0  0  0
   -7.7401   42.8505  -14.8109 C   0  0  0  0  0  0  0  0  0  0  0  0
   -6.8330   41.6590  -14.7242 C   0  0  0  0  0  0  0  0  0  0  0  0
   -6.8835   40.5993  -15.7846 C   0  0  0  0  0  0  0  0  0  0  0  0
   -7.8409   40.7311  -16.9317 C   0  0  0  0  0  0  0  0  0  0  0  0
   -8.1141   39.8535  -18.1171 N   0  0  0  0  0  0  0  0  0  0  0  0
   -9.1900   40.5025  -18.9363 C   0  0  0  0  0  0  0  0  0  0  0  0
   -9.7719   39.9668  -20.2108 O   0  0  0  0  0  0  0  0  0  0  0  0
   -5.9764   39.4078  -15.6980 Br  0  0  0  0  0  0  0  0  0  0  0  0
   -7.6896   43.9102  -13.7504 Br  0  0  0  0  0  0  0  0  0  0  0  0
  -10.9566   46.5847  -17.7708 C   0  0  0  0  0  0  0  0  0  0  0  0
  -12.1573   46.6457  -16.8738 O   0  0  0  0  0  0  0  0  0  0  0  0
  -14.8449   42.6820  -14.8576 C   0  0  0  0  0  0  0  0  0  0  0  0
  -13.6877   43.6341  -14.7911 C   0  0  0  0  0  0  0  0  0  0  0  0
  -12.7171   43.5563  -13.6501 C   0  0  0  0  0  0  0  0  0  0  0  0
  -11.5600   44.5084  -13.5837 C   0  0  0  0  0  0  0  0  0  0  0  0
  -11.3734   45.5382  -14.6582 C   0  0  0  0  0  0  0  0  0  0  0  0
  -12.3439   45.6159  -15.7993 C   0  0  0  0  0  0  0  0  0  0  0  0
  -13.5011   44.6638  -15.8657 C   0  0  0  0  0  0  0  0  0  0  0  0
  -14.4716   44.7416  -17.0067 C   0  0  0  0  0  0  0  0  0  0  0  0
  -10.2161   46.4904  -14.5918 C   0  0  0  0  0  0  0  0  0  0  0  0
 19 20  1  0  0  0
 20 21  2  0  0  0
 21 22  1  0  0  0
 22 23  2  0  0  0
 23 24  1  0  0  0
 24 25  2  0  0  0
 25 26  1  0  0  0
 24 18  1  0  0  0
 18 17  1  0  0  0
 17  1  1  0  0  0
  1  2  2  0  0  0
  1  3  1  0  0  0
  3  4  1  0  0  0
  4  5  2  0  0  0
  5  6  1  0  0  0
  6  7  2  0  0  0
  7  8  1  0  0  0
  8  9  2  0  0  0
  9 10  1  0  0  0
 10 11  2  0  0  0
 11 12  1  0  0  0
 12 13  1  0  0  0
 13 14  2  0  0  0
 10 15  1  0  0  0
  8 16  1  0  0  0
 23 27  1  0  0  0
 25 20  1  0  0  0
 13  5  1  0  0  0
 11  6  1  0  0  0
M  END
> <minimizedAffinity>
-5.95975

$$$$



 35 39  0  0  0  0  0  0  0  0999 V2000
  -11.4197   44.2590  -14.3077 C   0  0  0  0  0  0  0  0  0  0  0  0
  -12.3699   43.4835  -13.4442 C   0  0  0  0  0  0  0  0  0  0  0  0
  -13.7604   43.1973  -13.9285 C   0  0  0  0  0  0  0  0  0  0  0  0
  -14.2007   43.6866  -15.2765 C   0  0  0  0  0  0  0  0  0  0  0  0
  -13.2503   44.4620  -16.1400 C   0  0  0  0  0  0  0  0  0  0  0  0
  -11.8598   44.7482  -15.6556 C   0  0  0  0  0  0  0  0  0  0  0  0
  -13.6906   44.9513  -17.4879 C   0  0  0  0  0  0  0  0  0  0  0  0
  -12.9809   45.7341  -18.5525 C   0  0  0  0  0  0  0  0  0  0  0  0
  -13.9327   45.9318  -19.6948 C   0  0  0  0  0  0  0  0  0  0  0  0
  -15.2308   45.2710  -19.3362 C   0  0  0  0  0  0  0  0  0  0  0  0
  -15.0811   44.6651  -17.9722 C   0  0  0  0  0  0  0  0  0  0  0  0
  -16.0314   43.8896  -17.1087 C   0  0  0  0  0  0  0  0  0  0  0  0
  -15.5911   43.4004  -15.7608 N   0  0  0  0  0  0  0  0  0  0  0  0
  -17.4219   43.6034  -17.5930 C   0  0  0  0  0  0  0  0  0  0  0  0
  -18.5162   44.6036  -17.3651 C   0  0  0  0  0  0  0  0  0  0  0  0
  -19.9067   44.3173  -17.8495 C   0  0  0  0  0  0  0  0  0  0  0  0
  -20.2029   43.0309  -18.5618 C   0  0  0  0  0  0  0  0  0  0  0  0
  -19.1085   42.0306  -18.7897 C   0  0  0  0  0  0  0  0  0  0  0  0
  -17.7180   42.3169  -18.3053 C   0  0  0  0  0  0  0  0  0  0  0  0
  -19.4046   40.7442  -19.5019 O   0  0  0  0  0  0  0  0  0  0  0  0
  -18.2802   39.8530  -19.9393 C   0  0  0  0  0  0  0  0  0  0  0  0
  -21.5933   42.7447  -19.0461 O   0  0  0  0  0  0  0  0  0  0  0  0
  -22.5941   43.8569  -19.1532 C   0  0  0  0  0  0  0  0  0  0  0  0
  -10.0291   44.5452  -13.8234 S   0  0  0  0  0  0  0  0  0  0  0  0
   -9.5382   44.5583  -15.2407 O   0  0  0  0  0  0  0  0  0  0  0  0
  -10.5201   44.5320  -12.4061 O   0  0  0  0  0  0  0  0  0  0  0  0
   -8.6386   44.8314  -13.3390 N   0  0  0  0  0  0  0  0  0  0  0  0
   -6.2894   43.8354  -14.9166 C   0  0  0  0  0  0  0  0  0  0  0  0
   -6.5951   45.3032  -14.8726 C   0  0  0  0  0  0  0  0  0  0  0  0
   -5.7263   46.2730  -15.6173 C   0  0  0  0  0  0  0  0  0  0  0  0
   -6.0321   47.7408  -15.5732 C   0  0  0  0  0  0  0  0  0  0  0  0
   -7.2067   48.2388  -14.7845 C   0  0  0  0  0  0  0  0  0  0  0  0
   -8.0755   47.2690  -14.0398 C   0  0  0  0  0  0  0  0  0  0  0  0
   -7.7698   45.8013  -14.0838 C   0  0  0  0  0  0  0  0  0  0  0  0
   -9.2502   47.7671  -13.2509 C   0  0  0  0  0  0  0  0  0  0  0  0
 28 29  1  0  0  0
 29 30  2  0  0  0
 30 31  1  0  0  0
 31 32  2  0  0  0
 32 33  1  0  0  0
 33 34  2  0  0  0
 34 27  1  0  0  0
 27 24  1  0  0  0
 24 25  2  0  0  0
 24 26  2  0  0  0
 24  1  1  0  0  0
  1  2  2  0  0  0
  2  3  1  0  0  0
  3  4  2  0  0  0
  4  5  1  0  0  0
  5  6  2  0  0  0
  5  7  1  0  0  0
  7  8  1  0  0  0
  8  9  2  0  0  0
  9 10  1  0  0  0
 11 10  1  0  0  0
 11 12  1  0  0  0
 12 13  1  0  0  0
 12 14  1  0  0  0
 14 15  2  0  0  0
 15 16  1  0  0  0
 16 17  2  0  0  0
 17 18  1  0  0  0
 18 19  2  0  0  0
 18 20  1  0  0  0
 20 21  1  0  0  0
 17 22  1  0  0  0
 22 23  1  0  0  0
 33 35  1  0  0  0
 34 29  1  0  0  0
  6  1  1  0  0  0
 13  4  1  0  0  0
 11  7  1  0  0  0
 19 14  1  0  0  0
M  END
> <minimizedAffinity>
-6.62704

$$$$



 35 39  0  0  0  0  0  0  0  0999 V2000
  -16.8059   46.2152  -21.3930 C   0  0  0  0  0  0  0  0  0  0  0  0
  -15.9470   46.8663  -22.4362 C   0  0  0  0  0  0  0  0  0  0  0  0
  -16.4334   47.5291  -23.6908 O   0  0  0  0  0  0  0  0  0  0  0  0
  -14.5161   46.7383  -22.0044 N   0  0  0  0  0  0  0  0  0  0  0  0
  -14.4908   46.0080  -20.6944 C   0  0  0  0  0  0  0  0  0  0  0  0
  -13.2655   45.6618  -19.9015 N   0  0  0  0  0  0  0  0  0  0  0  0
  -15.9060   45.6848  -20.3165 S   0  0  0  0  0  0  0  0  0  0  0  0
  -13.3967   44.9249  -18.6017 N   0  0  0  0  0  0  0  0  0  0  0  0
  -12.9512   45.5725  -17.3240 C   0  0  0  0  0  0  0  0  0  0  0  0
  -13.0824   44.8355  -16.0241 C   0  0  0  0  0  0  0  0  0  0  0  0
  -12.0114   44.6832  -14.9850 C   0  0  0  0  0  0  0  0  0  0  0  0
  -10.5960   45.1760  -14.9227 C   0  0  0  0  0  0  0  0  0  0  0  0
   -9.7440   44.8606  -13.7292 C   0  0  0  0  0  0  0  0  0  0  0  0
  -10.3073   44.0524  -12.5980 C   0  0  0  0  0  0  0  0  0  0  0  0
  -11.7226   43.5596  -12.6603 C   0  0  0  0  0  0  0  0  0  0  0  0
  -12.5747   43.8750  -13.8538 C   0  0  0  0  0  0  0  0  0  0  0  0
  -13.9938   43.5279  -14.1939 N   0  0  0  0  0  0  0  0  0  0  0  0
  -14.3076   44.1215  -15.5352 C   0  0  0  0  0  0  0  0  0  0  0  0
  -15.6167   44.0191  -16.2603 C   0  0  0  0  0  0  0  0  0  0  0  0
  -16.5218   45.2121  -16.3462 C   0  0  0  0  0  0  0  0  0  0  0  0
  -17.8309   45.1096  -17.0712 C   0  0  0  0  0  0  0  0  0  0  0  0
  -18.2349   43.8142  -17.7104 C   0  0  0  0  0  0  0  0  0  0  0  0
  -17.3298   42.6212  -17.6246 C   0  0  0  0  0  0  0  0  0  0  0  0
  -16.0207   42.7236  -16.8995 C   0  0  0  0  0  0  0  0  0  0  0  0
  -18.3021   46.1126  -21.4213 C   0  0  0  0  0  0  0  0  0  0  0  0
  -18.9584   44.8467  -21.8871 C   0  0  0  0  0  0  0  0  0  0  0  0
  -18.7978   44.3980  -23.3094 O   0  0  0  0  0  0  0  0  0  0  0  0
  -22.2257   41.5782  -18.0607 C   0  0  0  0  0  0  0  0  0  0  0  0
  -21.4089   42.3952  -19.0173 C   0  0  0  0  0  0  0  0  0  0  0  0
  -20.4025   41.7260  -19.9057 C   0  0  0  0  0  0  0  0  0  0  0  0
  -19.5857   42.5432  -20.8623 C   0  0  0  0  0  0  0  0  0  0  0  0
  -19.7753   44.0296  -20.9304 C   0  0  0  0  0  0  0  0  0  0  0  0
  -20.7816   44.6988  -20.0420 C   0  0  0  0  0  0  0  0  0  0  0  0
  -21.5984   43.8817  -19.0854 C   0  0  0  0  0  0  0  0  0  0  0  0
  -22.6048   44.5509  -18.1969 C   0  0  0  0  0  0  0  0  0  0  0  0
 28 29  1  0  0  0
 29 30  2  0  0  0
 30 31  1  0  0  0
 31 32  2  0  0  0
 32 33  1  0  0  0
 33 34  2  0  0  0
 34 35  1  0  0  0
 32 26  1  0  0  0
 26 27  2  0  0  0
 26 25  1  0  0  0
  1 25  1  0  0  0
  1  2  1  0  0  0
  2  3  2  0  0  0
  2  4  1  0  0  0
  4  5  1  0  0  0
  5  6  2  0  0  0
  6  8  1  0  0  0
  8  9  2  0  0  0
  9 10  1  0  0  0
 10 11  1  0  0  0
 11 12  2  0  0  0
 12 13  1  0  0  0
 13 14  2  0  0  0
 14 15  1  0  0  0
 15 16  2  0  0  0
 16 17  1  0  0  0
 17 18  1  0  0  0
 18 19  1  0  0  0
 19 20  2  0  0  0
 20 21  1  0  0  0
 21 22  2  0  0  0
 22 23  1  0  0  0
 23 24  2  0  0  0
  5  7  1  0  0  0
 34 29  1  0  0  0
  7  1  1  0  0  0
 18 10  2  0  0  0
 16 11  1  0  0  0
 24 19  1  0  0  0
M  END
> <minimizedAffinity>
-6.95983

$$$$



 30 32  0  0  0  0  0  0  0  0999 V2000
  -12.8938   44.1082  -14.4986 C   0  0  0  0  0  0  0  0  0  0  0  0
  -12.2802   43.2037  -13.4714 C   0  0  0  0  0  0  0  0  0  0  0  0
  -10.9256   43.5177  -12.9089 C   0  0  0  0  0  0  0  0  0  0  0  0
  -10.1845   44.7362  -13.3737 C   0  0  0  0  0  0  0  0  0  0  0  0
  -10.7982   45.6408  -14.4010 C   0  0  0  0  0  0  0  0  0  0  0  0
  -12.1528   45.3268  -14.9634 C   0  0  0  0  0  0  0  0  0  0  0  0
  -14.6959   44.4351  -16.3413 N   0  0  0  0  0  0  0  0  0  0  0  0
  -14.2484   43.7942  -15.0611 C   0  0  0  0  0  0  0  0  0  0  0  0
  -15.1556   42.8392  -14.3433 O   0  0  0  0  0  0  0  0  0  0  0  0
  -20.1145   43.1791  -18.5912 C   0  0  0  0  0  0  0  0  0  0  0  0
  -18.7598   43.4931  -18.0287 C   0  0  0  0  0  0  0  0  0  0  0  0
  -18.5270   44.7911  -17.3140 C   0  0  0  0  0  0  0  0  0  0  0  0
  -17.1724   45.1051  -16.7515 C   0  0  0  0  0  0  0  0  0  0  0  0
  -16.0506   44.1211  -16.9037 C   0  0  0  0  0  0  0  0  0  0  0  0
  -16.2834   42.8231  -17.6185 C   0  0  0  0  0  0  0  0  0  0  0  0
  -17.6380   42.5091  -18.1809 C   0  0  0  0  0  0  0  0  0  0  0  0
  -15.1616   41.8390  -17.7707 C   0  0  0  0  0  0  0  0  0  0  0  0
  -10.0572   46.8593  -14.8657 S   0  0  0  0  0  0  0  0  0  0  0  0
  -10.4728   47.5866  -13.6215 O   0  0  0  0  0  0  0  0  0  0  0  0
   -9.6415   46.1320  -16.1100 O   0  0  0  0  0  0  0  0  0  0  0  0
   -9.3161   48.0779  -15.3305 N   0  0  0  0  0  0  0  0  0  0  0  0
  -10.0646   49.2183  -15.9545 C   0  0  0  0  0  0  0  0  0  0  0  0
  -10.5591   50.3477  -15.1001 C   0  0  0  0  0  0  0  0  0  0  0  0
  -11.3076   51.4881  -15.7240 C   0  0  0  0  0  0  0  0  0  0  0  0
  -11.5616   51.4990  -17.2024 C   0  0  0  0  0  0  0  0  0  0  0  0
  -11.0670   50.3696  -18.0567 C   0  0  0  0  0  0  0  0  0  0  0  0
  -10.3186   49.2293  -17.4327 C   0  0  0  0  0  0  0  0  0  0  0  0
  -12.3101   52.6394  -17.8264 Br  0  0  0  0  0  0  0  0  0  0  0  0
   -8.8299   45.0502  -12.8112 O   0  0  0  0  0  0  0  0  0  0  0  0
   -7.6209   44.3191  -13.3148 C   0  0  0  0  0  0  0  0  0  0  0  0
 10 11  1  0  0  0
 11 12  2  0  0  0
 12 13  1  0  0  0
 13 14  2  0  0  0
 14 15  1  0  0  0
 15 16  2  0  0  0
 15 17  1  0  0  0
 14  7  1  0  0  0
  7  8  1  0  0  0
  8  9  2  0  0  0
  8  1  1  0  0  0
  1  2  2  0  0  0
  2  3  1  0  0  0
  3  4  2  0  0  0
  4  5  1  0  0  0
  5  6  2  0  0  0
  5 18  1  0  0  0
 18 19  2  0  0  0
 18 20  2  0  0  0
 18 21  1  0  0  0
 21 22  1  0  0  0
 22 23  2  0  0  0
 23 24  1  0  0  0
 24 25  2  0  0  0
 25 26  1  0  0  0
 26 27  2  0  0  0
 25 28  1  0  0  0
  4 29  1  0  0  0
 29 30  1  0  0  0
 16 11  1  0  0  0
  6  1  1  0  0  0
 27 22  1  0  0  0
M  END
> <minimizedAffinity>
-6.49267

$$$$



 35 39  0  0  0  0  0  0  0  0999 V2000
  -11.0173   45.0399  -14.6514 C   0  0  0  0  0  0  0  0  0  0  0  0
  -11.4272   44.1256  -13.5352 C   0  0  0  0  0  0  0  0  0  0  0  0
  -12.7818   43.5714  -13.8638 C   0  0  0  0  0  0  0  0  0  0  0  0
  -13.2090   44.1431  -15.1830 C   0  0  0  0  0  0  0  0  0  0  0  0
  -12.1184   45.0507  -15.6698 C   0  0  0  0  0  0  0  0  0  0  0  0
  -12.2691   45.7698  -16.9777 C   0  0  0  0  0  0  0  0  0  0  0  0
  -13.5102   45.5812  -17.7986 C   0  0  0  0  0  0  0  0  0  0  0  0
  -14.6008   44.6736  -17.3118 C   0  0  0  0  0  0  0  0  0  0  0  0
  -14.4501   43.9545  -16.0040 C   0  0  0  0  0  0  0  0  0  0  0  0
  -15.5407   43.0469  -15.5172 C   0  0  0  0  0  0  0  0  0  0  0  0
  -16.7818   42.8583  -16.3382 C   0  0  0  0  0  0  0  0  0  0  0  0
  -16.9325   43.5774  -17.6460 C   0  0  0  0  0  0  0  0  0  0  0  0
  -15.8419   44.4850  -18.1328 C   0  0  0  0  0  0  0  0  0  0  0  0
  -15.9925   45.2040  -19.4406 C   0  0  0  0  0  0  0  0  0  0  0  0
  -17.2337   45.0154  -20.2615 C   0  0  0  0  0  0  0  0  0  0  0  0
  -18.3242   44.1078  -19.7747 C   0  0  0  0  0  0  0  0  0  0  0  0
  -18.1736   43.3888  -18.4669 C   0  0  0  0  0  0  0  0  0  0  0  0
  -14.7514   45.3926  -18.6196 C   0  0  0  0  0  0  0  0  0  0  0  0
  -11.1504   45.9922  -16.3231 C   0  0  0  0  0  0  0  0  0  0  0  0
  -10.6237   43.8194  -12.3061 O   0  0  0  0  0  0  0  0  0  0  0  0
   -9.6128   46.4600  -12.9899 C   0  0  0  0  0  0  0  0  0  0  0  0
   -9.7761   45.2285  -13.8304 C   0  0  0  0  0  0  0  0  0  0  0  0
   -8.6983   44.1855  -13.8500 N   0  0  0  0  0  0  0  0  0  0  0  0
   -7.4572   44.3740  -13.0291 O   0  0  0  0  0  0  0  0  0  0  0  0
  -10.3479   45.9936  -15.5961 O   0  0  0  0  0  0  0  0  0  0  0  0
   -9.7943   45.4951  -16.8981 C   0  0  0  0  0  0  0  0  0  0  0  0
  -19.5654   43.9192  -20.5957 O   0  0  0  0  0  0  0  0  0  0  0  0
  -20.8937   44.3650  -20.0602 C   0  0  0  0  0  0  0  0  0  0  0  0
  -21.5838   45.5537  -20.6609 O   0  0  0  0  0  0  0  0  0  0  0  0
  -21.5320   43.6221  -18.9241 C   0  0  0  0  0  0  0  0  0  0  0  0
  -21.7809   42.1473  -19.0381 C   0  0  0  0  0  0  0  0  0  0  0  0
  -22.4191   41.4044  -17.9020 C   0  0  0  0  0  0  0  0  0  0  0  0
  -22.8085   42.1363  -16.6519 C   0  0  0  0  0  0  0  0  0  0  0  0
  -22.5596   43.6111  -16.5379 C   0  0  0  0  0  0  0  0  0  0  0  0
  -21.9213   44.3540  -17.6740 C   0  0  0  0  0  0  0  0  0  0  0  0
 21 22  1  0  0  0
 22 23  2  0  0  0
 23 24  1  0  0  0
 22  1  1  0  0  0
  1  2  1  0  0  0
  2  3  1  0  0  0
  4  3  1  0  0  0
  4  5  1  0  0  0
  5  6  1  0  0  0
  6  7  1  0  0  0
  8  7  1  0  0  0
  8  9  1  0  0  0
  9 10  1  0  0  0
 10 11  1  0  0  0
 11 12  2  0  0  0
 12 13  1  0  0  0
 13 14  1  0  0  0
 14 15  1  0  0  0
 15 16  1  0  0  0
 16 17  1  0  0  0
 16 27  1  0  0  0
 27 28  1  0  0  0
 28 29  2  0  0  0
 28 30  1  0  0  0
 30 31  2  0  0  0
 31 32  1  0  0  0
 32 33  2  0  0  0
 33 34  1  0  0  0
 34 35  2  0  0  0
 13 18  1  0  0  0
  5 19  1  0  0  0
  2 20  1  0  0  0
  1 25  1  0  0  0
 25 26  1  0  0  0
  5  1  1  0  0  0
  9  4  1  0  0  0
 13  8  1  0  0  0
 17 12  1  0  0  0
 35 30  1  0  0  0
M  END
> <minimizedAffinity>
-7.09426

$$$$



 36 40  0  0  0  0  0  0  0  0999 V2000
  -14.0466   42.5566  -17.9667 C   0  0  0  0  0  0  0  0  0  0  0  0
  -15.5136   42.7729  -18.1930 C   0  0  0  0  0  0  0  0  0  0  0  0
  -16.4509   41.9905  -19.0645 C   0  0  0  0  0  0  0  0  0  0  0  0
  -17.8971   42.3793  -19.1490 C   0  0  0  0  0  0  0  0  0  0  0  0
  -18.4062   43.5504  -18.3620 C   0  0  0  0  0  0  0  0  0  0  0  0
  -17.4690   44.3328  -17.4905 C   0  0  0  0  0  0  0  0  0  0  0  0
  -16.0226   43.9440  -17.4060 C   0  0  0  0  0  0  0  0  0  0  0  0
  -15.0854   44.7264  -16.5346 O   0  0  0  0  0  0  0  0  0  0  0  0
  -16.1525   40.7986  -19.9249 N   0  0  0  0  0  0  0  0  0  0  0  0
  -14.8434   40.0947  -20.1264 C   0  0  0  0  0  0  0  0  0  0  0  0
  -14.9818   38.9409  -21.0749 C   0  0  0  0  0  0  0  0  0  0  0  0
  -13.7861   38.1014  -21.4142 C   0  0  0  0  0  0  0  0  0  0  0  0
  -12.4518   38.4155  -20.8050 C   0  0  0  0  0  0  0  0  0  0  0  0
  -12.3134   39.5692  -19.8565 C   0  0  0  0  0  0  0  0  0  0  0  0
  -13.5092   40.4088  -19.5172 C   0  0  0  0  0  0  0  0  0  0  0  0
  -13.1546   41.5045  -18.5561 N   0  0  0  0  0  0  0  0  0  0  0  0
  -12.0590   45.4460  -15.1470 C   0  0  0  0  0  0  0  0  0  0  0  0
  -12.0909   45.7358  -16.6185 C   0  0  0  0  0  0  0  0  0  0  0  0
  -12.7534   44.7726  -17.5584 C   0  0  0  0  0  0  0  0  0  0  0  0
  -13.3841   43.5197  -17.0268 C   0  0  0  0  0  0  0  0  0  0  0  0
  -13.3522   43.2299  -15.5554 C   0  0  0  0  0  0  0  0  0  0  0  0
  -12.6897   44.1932  -14.6155 C   0  0  0  0  0  0  0  0  0  0  0  0
  -12.6578   43.9034  -13.1442 O   0  0  0  0  0  0  0  0  0  0  0  0
  -11.3686   43.5123  -12.4845 C   0  0  0  0  0  0  0  0  0  0  0  0
  -11.3965   46.4092  -14.2072 O   0  0  0  0  0  0  0  0  0  0  0  0
   -8.9418   46.8555  -14.9318 C   0  0  0  0  0  0  0  0  0  0  0  0
  -10.3420   47.3475  -14.7150 C   0  0  0  0  0  0  0  0  0  0  0  0
  -10.6880   48.7777  -15.0059 C   0  0  0  0  0  0  0  0  0  0  0  0
  -19.8524   43.9391  -18.4466 C   0  0  0  0  0  0  0  0  0  0  0  0
  -20.6466   44.1512  -17.1918 C   0  0  0  0  0  0  0  0  0  0  0  0
  -22.0928   44.5399  -17.2762 C   0  0  0  0  0  0  0  0  0  0  0  0
  -22.7451   44.7165  -18.6155 C   0  0  0  0  0  0  0  0  0  0  0  0
  -21.9509   44.5044  -19.8702 C   0  0  0  0  0  0  0  0  0  0  0  0
  -20.5046   44.1157  -19.7857 C   0  0  0  0  0  0  0  0  0  0  0  0
  -22.6031   44.6810  -21.2094 O   0  0  0  0  0  0  0  0  0  0  0  0
  -21.7856   45.1131  -22.3905 C   0  0  0  0  0  0  0  0  0  0  0  0
 26 27  1  0  0  0
 27 28  1  0  0  0
 27 25  1  0  0  0
 25 17  1  0  0  0
 17 18  2  0  0  0
 18 19  1  0  0  0
 19 20  2  0  0  0
 20 21  1  0  0  0
 21 22  2  0  0  0
 22 23  1  0  0  0
 23 24  1  0  0  0
  1 20  1  0  0  0
  1  2  1  0  0  0
  2  3  2  0  0  0
  3  4  1  0  0  0
  4  5  1  0  0  0
  5  6  1  0  0  0
  6  7  1  0  0  0
  7  8  2  0  0  0
  5 29  1  0  0  0
 29 30  2  0  0  0
 30 31  1  0  0  0
 31 32  2  0  0  0
 32 33  1  0  0  0
 33 34  2  0  0  0
 33 35  1  0  0  0
 35 36  1  0  0  0
  3  9  1  0  0  0
  9 10  1  0  0  0
 10 11  2  0  0  0
 11 12  1  0  0  0
 12 13  2  0  0  0
 13 14  1  0  0  0
 14 15  2  0  0  0
 15 16  1  0  0  0
 22 17  1  0  0  0
 16  1  1  0  0  0
  7  2  1  0  0  0
 34 29  1  0  0  0
 15 10  1  0  0  0
M  END
> <minimizedAffinity>
-6.37686

$$$$



 37 41  0  0  0  0  0  0  0  0999 V2000
  -18.8935   43.9842  -20.1895 C   0  0  0  0  0  0  0  0  0  0  0  0
  -17.7483   44.1809  -19.2408 C   0  0  0  0  0  0  0  0  0  0  0  0
  -16.8432   45.3689  -19.1008 C   0  0  0  0  0  0  0  0  0  0  0  0
  -15.7472   45.3602  -18.0767 C   0  0  0  0  0  0  0  0  0  0  0  0
  -15.5564   44.1636  -17.1926 C   0  0  0  0  0  0  0  0  0  0  0  0
  -16.4614   42.9757  -17.3326 C   0  0  0  0  0  0  0  0  0  0  0  0
  -17.5574   42.9843  -18.3567 C   0  0  0  0  0  0  0  0  0  0  0  0
  -18.4624   41.7964  -18.4967 O   0  0  0  0  0  0  0  0  0  0  0  0
  -16.8598   46.6536  -19.8750 N   0  0  0  0  0  0  0  0  0  0  0  0
  -17.7855   47.0677  -20.9802 C   0  0  0  0  0  0  0  0  0  0  0  0
  -17.4563   48.4412  -21.4852 C   0  0  0  0  0  0  0  0  0  0  0  0
  -18.2648   49.0463  -22.5943 C   0  0  0  0  0  0  0  0  0  0  0  0
  -19.4026   48.2778  -23.1984 C   0  0  0  0  0  0  0  0  0  0  0  0
  -19.7319   46.9044  -22.6934 C   0  0  0  0  0  0  0  0  0  0  0  0
  -18.9233   46.2993  -21.5844 C   0  0  0  0  0  0  0  0  0  0  0  0
  -19.4164   44.9270  -21.2324 N   0  0  0  0  0  0  0  0  0  0  0  0
  -21.0446   40.0452  -19.8634 C   0  0  0  0  0  0  0  0  0  0  0  0
  -19.8552   40.1775  -20.7677 C   0  0  0  0  0  0  0  0  0  0  0  0
  -19.1381   41.4906  -20.8764 C   0  0  0  0  0  0  0  0  0  0  0  0
  -19.6105   42.6712  -20.0808 C   0  0  0  0  0  0  0  0  0  0  0  0
  -20.8000   42.5389  -19.1764 C   0  0  0  0  0  0  0  0  0  0  0  0
  -21.5170   41.2258  -19.0678 C   0  0  0  0  0  0  0  0  0  0  0  0
  -22.7063   41.0934  -18.1635 O   0  0  0  0  0  0  0  0  0  0  0  0
  -22.9886   42.1494  -17.1360 C   0  0  0  0  0  0  0  0  0  0  0  0
  -21.7616   38.7322  -19.7547 O   0  0  0  0  0  0  0  0  0  0  0  0
  -20.6740   36.5749  -20.7104 C   0  0  0  0  0  0  0  0  0  0  0  0
  -21.6368   37.7164  -20.8514 C   0  0  0  0  0  0  0  0  0  0  0  0
  -22.4749   37.8421  -22.0889 C   0  0  0  0  0  0  0  0  0  0  0  0
  -14.4604   44.1550  -16.1685 C   0  0  0  0  0  0  0  0  0  0  0  0
  -14.5493   43.2409  -14.9826 C   0  0  0  0  0  0  0  0  0  0  0  0
  -13.4534   43.2322  -13.9585 C   0  0  0  0  0  0  0  0  0  0  0  0
  -12.2685   44.1378  -14.1203 C   0  0  0  0  0  0  0  0  0  0  0  0
  -12.1796   45.0519  -15.3062 C   0  0  0  0  0  0  0  0  0  0  0  0
  -13.2756   45.0605  -16.3303 C   0  0  0  0  0  0  0  0  0  0  0  0
  -11.1726   44.1291  -13.0961 N   0  0  0  0  0  0  0  0  0  0  0  0
  -11.5096   44.2015  -11.6363 C   0  0  0  0  0  0  0  0  0  0  0  0
   -9.7395   44.0480  -13.5318 C   0  0  0  0  0  0  0  0  0  0  0  0
 26 27  1  0  0  0
 27 28  1  0  0  0
 27 25  1  0  0  0
 25 17  1  0  0  0
 17 18  2  0  0  0
 18 19  1  0  0  0
 19 20  2  0  0  0
 20 21  1  0  0  0
 21 22  2  0  0  0
 22 23  1  0  0  0
 23 24  1  0  0  0
  1 20  1  0  0  0
  1  2  1  0  0  0
  2  3  2  0  0  0
  3  4  1  0  0  0
  4  5  1  0  0  0
  5  6  1  0  0  0
  6  7  1  0  0  0
  7  8  2  0  0  0
  5 29  1  0  0  0
 29 30  2  0  0  0
 30 31  1  0  0  0
 31 32  2  0  0  0
 32 33  1  0  0  0
 33 34  2  0  0  0
 32 35  1  0  0  0
 35 36  1  0  0  0
 35 37  1  0  0  0
  3  9  1  0  0  0
  9 10  1  0  0  0
 10 11  2  0  0  0
 11 12  1  0  0  0
 12 13  2  0  0  0
 13 14  1  0  0  0
 14 15  2  0  0  0
 15 16  1  0  0  0
 22 17  1  0  0  0
 16  1  1  0  0  0
  7  2  1  0  0  0
 34 29  1  0  0  0
 15 10  1  0  0  0
M  END
> <minimizedAffinity>
-6.29480

$$$$



 35 40  0  0  0  0  0  0  0  0999 V2000
  -16.7656   45.3599  -17.9571 C   0  0  0  0  0  0  0  0  0  0  0  0
  -16.5922   46.1934  -19.1921 C   0  0  0  0  0  0  0  0  0  0  0  0
  -17.6201   46.1402  -20.2833 C   0  0  0  0  0  0  0  0  0  0  0  0
  -18.8214   45.2534  -20.1394 C   0  0  0  0  0  0  0  0  0  0  0  0
  -18.9947   44.4199  -18.9044 C   0  0  0  0  0  0  0  0  0  0  0  0
  -17.9668   44.4731  -17.8133 C   0  0  0  0  0  0  0  0  0  0  0  0
  -20.1959   43.5332  -18.7606 C   0  0  0  0  0  0  0  0  0  0  0  0
  -21.3538   43.9705  -17.9132 C   0  0  0  0  0  0  0  0  0  0  0  0
  -22.5551   43.0836  -17.7695 C   0  0  0  0  0  0  0  0  0  0  0  0
  -22.5984   41.7596  -18.4730 C   0  0  0  0  0  0  0  0  0  0  0  0
  -21.4405   41.3223  -19.3204 C   0  0  0  0  0  0  0  0  0  0  0  0
  -20.2393   42.2091  -19.4642 N   0  0  0  0  0  0  0  0  0  0  0  0
  -21.4838   39.9982  -20.0239 C   0  0  0  0  0  0  0  0  0  0  0  0
  -22.7734   39.5000  -20.6059 C   0  0  0  0  0  0  0  0  0  0  0  0
  -22.8167   38.1760  -21.3094 C   0  0  0  0  0  0  0  0  0  0  0  0
  -21.5704   37.3501  -21.4310 C   0  0  0  0  0  0  0  0  0  0  0  0
  -20.2809   37.8483  -20.8490 C   0  0  0  0  0  0  0  0  0  0  0  0
  -20.2375   39.1724  -20.1455 C   0  0  0  0  0  0  0  0  0  0  0  0
  -19.0346   37.0225  -20.9705 N   0  0  0  0  0  0  0  0  0  0  0  0
  -19.0779   35.6984  -21.6741 C   0  0  0  0  0  0  0  0  0  0  0  0
  -17.8316   34.8726  -21.7956 O   0  0  0  0  0  0  0  0  0  0  0  0
  -20.3675   35.2002  -22.2561 C   0  0  0  0  0  0  0  0  0  0  0  0
  -21.6138   36.0260  -22.1345 O   0  0  0  0  0  0  0  0  0  0  0  0
  -14.4849   44.5955  -16.9752 C   0  0  0  0  0  0  0  0  0  0  0  0
  -14.2600   43.7247  -18.1756 O   0  0  0  0  0  0  0  0  0  0  0  0
  -15.7377   45.4131  -16.8659 N   0  0  0  0  0  0  0  0  0  0  0  0
  -10.4987   44.3370  -11.9109 C   0  0  0  0  0  0  0  0  0  0  0  0
   -9.6911   45.3088  -12.7192 C   0  0  0  0  0  0  0  0  0  0  0  0
  -10.1774   45.7486  -14.0682 C   0  0  0  0  0  0  0  0  0  0  0  0
  -11.4714   45.2166  -14.6090 C   0  0  0  0  0  0  0  0  0  0  0  0
  -12.2790   44.2448  -13.8008 C   0  0  0  0  0  0  0  0  0  0  0  0
  -11.7927   43.8050  -12.4518 C   0  0  0  0  0  0  0  0  0  0  0  0
  -13.5062   43.8938  -14.5888 C   0  0  0  0  0  0  0  0  0  0  0  0
  -13.4570   44.6488  -15.8841 C   0  0  0  0  0  0  0  0  0  0  0  0
  -12.1994   45.4663  -15.8965 S   0  0  0  0  0  0  0  0  0  0  0  0
 27 28  2  0  0  0
 28 29  1  0  0  0
 29 30  2  0  0  0
 30 31  1  0  0  0
 31 32  2  0  0  0
 31 33  1  0  0  0
 33 34  2  0  0  0
 34 35  1  0  0  0
 34 24  1  0  0  0
 24 25  2  0  0  0
 24 26  1  0  0  0
 26  1  1  0  0  0
  1  2  2  0  0  0
  2  3  1  0  0  0
  3  4  2  0  0  0
  4  5  1  0  0  0
  5  6  2  0  0  0
  5  7  1  0  0  0
  7  8  2  0  0  0
  8  9  1  0  0  0
  9 10  2  0  0  0
 10 11  1  0  0  0
 11 12  2  0  0  0
 11 13  1  0  0  0
 13 14  2  0  0  0
 14 15  1  0  0  0
 15 16  2  0  0  0
 16 17  1  0  0  0
 17 18  2  0  0  0
 17 19  1  0  0  0
 19 20  1  0  0  0
 20 21  2  0  0  0
 20 22  1  0  0  0
 22 23  1  0  0  0
 32 27  1  0  0  0
 35 30  1  0  0  0
  6  1  1  0  0  0
 12  7  1  0  0  0
 18 13  1  0  0  0
 23 16  1  0  0  0
M  END
> <minimizedAffinity>
-7.47875

$$$$



 34 38  0  0  0  0  0  0  0  0999 V2000
  -14.3403   42.3437  -17.4460 C   0  0  0  0  0  0  0  0  0  0  0  0
  -14.3070   40.9366  -17.9644 C   0  0  0  0  0  0  0  0  0  0  0  0
  -13.0108   40.1826  -18.0046 C   0  0  0  0  0  0  0  0  0  0  0  0
  -11.7480   40.8359  -17.5263 N   0  0  0  0  0  0  0  0  0  0  0  0
  -11.7814   42.2430  -17.0079 C   0  0  0  0  0  0  0  0  0  0  0  0
  -13.0775   42.9969  -16.9677 N   0  0  0  0  0  0  0  0  0  0  0  0
  -10.3867   42.6224  -16.6072 C   0  0  0  0  0  0  0  0  0  0  0  0
   -9.4913   41.4499  -16.8780 C   0  0  0  0  0  0  0  0  0  0  0  0
  -10.3328   40.3457  -17.4460 N   0  0  0  0  0  0  0  0  0  0  0  0
  -18.2287   44.6055  -17.3254 C   0  0  0  0  0  0  0  0  0  0  0  0
  -16.9689   45.2529  -16.8316 C   0  0  0  0  0  0  0  0  0  0  0  0
  -15.6728   44.4989  -16.8718 C   0  0  0  0  0  0  0  0  0  0  0  0
  -15.6365   43.0977  -17.4058 C   0  0  0  0  0  0  0  0  0  0  0  0
  -16.8963   42.4503  -17.8996 C   0  0  0  0  0  0  0  0  0  0  0  0
  -18.1924   43.2043  -17.8593 C   0  0  0  0  0  0  0  0  0  0  0  0
  -12.9775   38.7755  -18.5231 C   0  0  0  0  0  0  0  0  0  0  0  0
  -12.9443   37.3683  -19.0415 F   0  0  0  0  0  0  0  0  0  0  0  0
  -12.2259   39.2398  -19.7352 F   0  0  0  0  0  0  0  0  0  0  0  0
  -13.7292   38.3111  -17.3109 F   0  0  0  0  0  0  0  0  0  0  0  0
   -9.9618   43.9428  -16.0360 C   0  0  0  0  0  0  0  0  0  0  0  0
  -10.9619   44.8132  -15.3344 N   0  0  0  0  0  0  0  0  0  0  0  0
   -8.5368   44.3927  -16.1663 O   0  0  0  0  0  0  0  0  0  0  0  0
  -10.5371   46.1335  -14.7631 C   0  0  0  0  0  0  0  0  0  0  0  0
  -10.5318   47.4469  -15.4876 C   0  0  0  0  0  0  0  0  0  0  0  0
  -10.0344   48.4973  -14.5393 C   0  0  0  0  0  0  0  0  0  0  0  0
   -9.7323   47.8331  -13.2289 C   0  0  0  0  0  0  0  0  0  0  0  0
  -10.0429   46.3722  -13.3671 S   0  0  0  0  0  0  0  0  0  0  0  0
   -9.2117   48.4512  -11.9651 C   0  0  0  0  0  0  0  0  0  0  0  0
   -8.8648   49.8863  -11.6998 C   0  0  0  0  0  0  0  0  0  0  0  0
   -8.9527   51.0574  -12.6327 C   0  0  0  0  0  0  0  0  0  0  0  0
   -9.4092   51.0831  -14.0613 C   0  0  0  0  0  0  0  0  0  0  0  0
   -9.8906   49.9437  -14.9099 C   0  0  0  0  0  0  0  0  0  0  0  0
  -10.9504   47.6707  -16.9106 C   0  0  0  0  0  0  0  0  0  0  0  0
  -11.3690   47.8943  -18.3335 N   0  0  0  0  0  0  0  0  0  0  0  0
 10 11  2  0  0  0
 11 12  1  0  0  0
 12 13  2  0  0  0
 13 14  1  0  0  0
 14 15  2  0  0  0
  1 13  1  0  0  0
  1  2  1  0  0  0
  2  3  1  0  0  0
  3  4  1  0  0  0
  4  5  1  0  0  0
  5  6  2  0  0  0
  5  7  1  0  0  0
  7  8  2  0  0  0
  8  9  1  0  0  0
  7 20  1  0  0  0
 20 21  2  0  0  0
 21 23  1  0  0  0
 23 24  2  0  0  0
 24 25  1  0  0  0
 25 26  2  0  0  0
 26 27  1  0  0  0
 26 28  1  0  0  0
 28 29  1  0  0  0
 29 30  1  0  0  0
 30 31  1  0  0  0
 31 32  1  0  0  0
 24 33  1  0  0  0
 33 34  3  0  0  0
 20 22  1  0  0  0
  3 16  1  0  0  0
 16 17  1  0  0  0
 16 18  1  0  0  0
 16 19  1  0  0  0
 15 10  1  0  0  0
  6  1  1  0  0  0
  9  4  1  0  0  0
 27 23  1  0  0  0
 32 25  1  0  0  0
M  CHG 1   6   1
M  CHG 1  22  -1
M  END
> <minimizedAffinity>
-5.92217

$$$$



 29 32  0  0  0  0  0  0  0  0999 V2000
  -14.1881   44.6212  -16.0655 C   0  0  0  0  0  0  0  0  0  0  0  0
  -13.7199   44.5908  -17.4902 O   0  0  0  0  0  0  0  0  0  0  0  0
  -15.6124   44.9712  -15.7513 N   0  0  0  0  0  0  0  0  0  0  0  0
  -11.3847   44.4431  -13.3869 N   0  0  0  0  0  0  0  0  0  0  0  0
  -12.1362   43.1759  -13.1047 C   0  0  0  0  0  0  0  0  0  0  0  0
  -13.2778   43.0884  -14.0738 C   0  0  0  0  0  0  0  0  0  0  0  0
  -13.2319   44.3015  -14.9549 C   0  0  0  0  0  0  0  0  0  0  0  0
  -12.0619   45.1386  -14.5303 N   0  0  0  0  0  0  0  0  0  0  0  0
  -10.1694   44.9292  -12.6542 C   0  0  0  0  0  0  0  0  0  0  0  0
   -8.0047   47.7339  -14.4423 C   0  0  0  0  0  0  0  0  0  0  0  0
   -9.1178   47.0675  -13.6894 C   0  0  0  0  0  0  0  0  0  0  0  0
   -9.0563   45.5956  -13.4071 C   0  0  0  0  0  0  0  0  0  0  0  0
   -7.8818   44.7901  -13.8779 C   0  0  0  0  0  0  0  0  0  0  0  0
   -6.7687   45.4565  -14.6308 C   0  0  0  0  0  0  0  0  0  0  0  0
   -6.8301   46.9284  -14.9130 C   0  0  0  0  0  0  0  0  0  0  0  0
   -5.7171   47.5948  -15.6660 Cl  0  0  0  0  0  0  0  0  0  0  0  0
   -7.8204   43.3182  -13.5956 Cl  0  0  0  0  0  0  0  0  0  0  0  0
  -16.5686   45.2909  -16.8619 N   0  0  0  0  0  0  0  0  0  0  0  0
  -17.4023   44.2024  -17.4704 C   0  0  0  0  0  0  0  0  0  0  0  0
  -18.3585   44.5220  -18.5810 C   0  0  0  0  0  0  0  0  0  0  0  0
  -18.0269   45.2573  -19.8457 C   0  0  0  0  0  0  0  0  0  0  0  0
  -19.2776   45.3522  -20.6682 N   0  0  0  0  0  0  0  0  0  0  0  0
  -20.3823   44.6757  -19.9119 C   0  0  0  0  0  0  0  0  0  0  0  0
  -19.8142   44.1626  -18.6219 C   0  0  0  0  0  0  0  0  0  0  0  0
  -20.6959   43.4344  -17.6512 C   0  0  0  0  0  0  0  0  0  0  0  0
  -22.1456   43.2193  -17.9704 C   0  0  0  0  0  0  0  0  0  0  0  0
  -22.7137   43.7324  -19.2604 C   0  0  0  0  0  0  0  0  0  0  0  0
  -21.8320   44.4606  -20.2311 C   0  0  0  0  0  0  0  0  0  0  0  0
  -23.0274   42.4911  -16.9996 Br  0  0  0  0  0  0  0  0  0  0  0  0
 10 11  2  0  0  0
 11 12  1  0  0  0
 12 13  2  0  0  0
 13 14  1  0  0  0
 14 15  2  0  0  0
 15 16  1  0  0  0
 13 17  1  0  0  0
 12  9  1  0  0  0
  9  4  1  0  0  0
  4  5  1  0  0  0
  5  6  2  0  0  0
  6  7  1  0  0  0
  7  8  2  0  0  0
  7  1  1  0  0  0
  1  2  2  0  0  0
  1  3  1  0  0  0
  3 18  1  0  0  0
 18 19  2  0  0  0
 19 20  1  0  0  0
 20 21  2  0  0  0
 21 22  1  0  0  0
 22 23  1  0  0  0
 23 24  2  0  0  0
 24 25  1  0  0  0
 25 26  2  0  0  0
 26 27  1  0  0  0
 27 28  2  0  0  0
 26 29  1  0  0  0
 15 10  1  0  0  0
  8  4  1  0  0  0
 24 20  1  0  0  0
 28 23  1  0  0  0
M  END
> <minimizedAffinity>
-6.78893

$$$$



 32 35  0  0  0  0  0  0  0  0999 V2000
  -18.8081   41.9412  -18.8894 C   0  0  0  0  0  0  0  0  0  0  0  0
  -17.5914   42.3181  -18.0971 C   0  0  0  0  0  0  0  0  0  0  0  0
  -17.6702   43.4164  -17.0786 C   0  0  0  0  0  0  0  0  0  0  0  0
  -16.4536   43.7932  -16.2864 C   0  0  0  0  0  0  0  0  0  0  0  0
  -15.1581   43.0718  -16.5127 C   0  0  0  0  0  0  0  0  0  0  0  0
  -15.0793   41.9735  -17.5313 C   0  0  0  0  0  0  0  0  0  0  0  0
  -16.2959   41.5966  -18.3235 C   0  0  0  0  0  0  0  0  0  0  0  0
  -16.2172   40.4983  -19.3421 O   0  0  0  0  0  0  0  0  0  0  0  0
  -17.4338   40.1215  -20.1343 C   0  0  0  0  0  0  0  0  0  0  0  0
  -18.7293   40.8429  -19.9080 C   0  0  0  0  0  0  0  0  0  0  0  0
  -17.3551   39.0231  -21.1530 N   0  0  0  0  0  0  0  0  0  0  0  0
  -21.7234   44.6117  -19.2353 C   0  0  0  0  0  0  0  0  0  0  0  0
  -20.4279   43.8902  -19.4617 C   0  0  0  0  0  0  0  0  0  0  0  0
  -20.1036   42.6626  -18.6631 C   0  0  0  0  0  0  0  0  0  0  0  0
  -21.0748   42.1564  -17.6381 C   0  0  0  0  0  0  0  0  0  0  0  0
  -22.3703   42.8779  -17.4117 C   0  0  0  0  0  0  0  0  0  0  0  0
  -22.6946   44.1055  -18.2104 C   0  0  0  0  0  0  0  0  0  0  0  0
  -23.3415   42.3718  -16.3868 Cl  0  0  0  0  0  0  0  0  0  0  0  0
  -19.9460   40.4660  -20.7003 C   0  0  0  0  0  0  0  0  0  0  0  0
  -21.1627   40.0892  -21.4926 N   0  0  0  0  0  0  0  0  0  0  0  0
  -13.9414   43.4487  -15.7204 O   0  0  0  0  0  0  0  0  0  0  0  0
  -13.0874   44.6008  -16.1599 C   0  0  0  0  0  0  0  0  0  0  0  0
  -12.3311   45.4043  -15.1438 O   0  0  0  0  0  0  0  0  0  0  0  0
  -12.9898   44.9497  -17.6156 C   0  0  0  0  0  0  0  0  0  0  0  0
  -13.9667   45.9122  -18.2233 O   0  0  0  0  0  0  0  0  0  0  0  0
  -14.9831   45.4246  -19.2127 C   0  0  0  0  0  0  0  0  0  0  0  0
  -16.3572   46.0260  -19.2345 C   0  0  0  0  0  0  0  0  0  0  0  0
  -17.3737   45.5384  -20.2239 C   0  0  0  0  0  0  0  0  0  0  0  0
  -17.0162   44.4494  -21.1915 C   0  0  0  0  0  0  0  0  0  0  0  0
  -15.6422   43.8480  -21.1698 C   0  0  0  0  0  0  0  0  0  0  0  0
  -14.6257   44.3356  -20.1803 C   0  0  0  0  0  0  0  0  0  0  0  0
  -18.0327   43.9618  -22.1809 Br  0  0  0  0  0  0  0  0  0  0  0  0
 12 13  2  0  0  0
 13 14  1  0  0  0
 14 15  2  0  0  0
 15 16  1  0  0  0
 16 17  2  0  0  0
 16 18  1  0  0  0
  1 14  1  0  0  0
  1  2  1  0  0  0
  2  3  2  0  0  0
  3  4  1  0  0  0
  4  5  2  0  0  0
  5  6  1  0  0  0
  6  7  2  0  0  0
  7  8  1  0  0  0
  8  9  1  0  0  0
  9 10  2  0  0  0
 10 19  1  0  0  0
 19 20  3  0  0  0
  9 11  1  0  0  0
  5 21  1  0  0  0
 21 22  1  0  0  0
 22 23  2  0  0  0
 22 24  1  0  0  0
 24 25  1  0  0  0
 25 26  1  0  0  0
 26 27  2  0  0  0
 27 28  1  0  0  0
 28 29  2  0  0  0
 29 30  1  0  0  0
 30 31  2  0  0  0
 29 32  1  0  0  0
 17 12  1  0  0  0
 10  1  1  0  0  0
  7  2  1  0  0  0
 31 26  1  0  0  0
M  END
> <minimizedAffinity>
-5.29856

$$$$



 33 36  0  0  0  0  0  0  0  0999 V2000
  -15.4053   44.4759  -16.4962 C   0  0  0  0  0  0  0  0  0  0  0  0
  -16.4276   43.4008  -16.2748 C   0  0  0  0  0  0  0  0  0  0  0  0
  -17.6052   43.2844  -17.1964 C   0  0  0  0  0  0  0  0  0  0  0  0
  -17.7606   44.2431  -18.3395 C   0  0  0  0  0  0  0  0  0  0  0  0
  -16.7384   45.3182  -18.5610 C   0  0  0  0  0  0  0  0  0  0  0  0
  -15.5607   45.4346  -17.6394 C   0  0  0  0  0  0  0  0  0  0  0  0
  -16.8938   46.2769  -19.7041 O   0  0  0  0  0  0  0  0  0  0  0  0
  -18.0715   46.1605  -20.6258 C   0  0  0  0  0  0  0  0  0  0  0  0
  -19.0938   45.0854  -20.4043 C   0  0  0  0  0  0  0  0  0  0  0  0
  -18.9384   44.1267  -19.2612 C   0  0  0  0  0  0  0  0  0  0  0  0
  -18.2269   47.1192  -21.7689 N   0  0  0  0  0  0  0  0  0  0  0  0
  -19.9607   43.0516  -19.0397 C   0  0  0  0  0  0  0  0  0  0  0  0
  -19.9046   41.7863  -19.8435 C   0  0  0  0  0  0  0  0  0  0  0  0
  -20.9270   40.7112  -19.6220 C   0  0  0  0  0  0  0  0  0  0  0  0
  -22.0053   40.9014  -18.5967 C   0  0  0  0  0  0  0  0  0  0  0  0
  -22.0613   42.1666  -17.7930 C   0  0  0  0  0  0  0  0  0  0  0  0
  -21.0390   43.2417  -18.0145 C   0  0  0  0  0  0  0  0  0  0  0  0
  -23.1395   42.3568  -16.7678 Br  0  0  0  0  0  0  0  0  0  0  0  0
  -20.2715   44.9690  -21.3260 C   0  0  0  0  0  0  0  0  0  0  0  0
  -21.4492   44.8526  -22.2477 N   0  0  0  0  0  0  0  0  0  0  0  0
  -14.2275   44.5924  -15.5746 O   0  0  0  0  0  0  0  0  0  0  0  0
  -12.8651   44.1737  -16.0419 C   0  0  0  0  0  0  0  0  0  0  0  0
  -11.7544   45.1793  -16.1121 O   0  0  0  0  0  0  0  0  0  0  0  0
  -12.6135   42.7492  -16.4392 C   0  0  0  0  0  0  0  0  0  0  0  0
  -12.3802   42.4024  -17.8797 O   0  0  0  0  0  0  0  0  0  0  0  0
  -12.5427   44.6253  -19.8878 C   0  0  0  0  0  0  0  0  0  0  0  0
  -13.5991   43.5608  -19.8602 C   0  0  0  0  0  0  0  0  0  0  0  0
  -14.7369   43.6078  -20.8366 C   0  0  0  0  0  0  0  0  0  0  0  0
  -15.7933   42.5433  -20.8090 C   0  0  0  0  0  0  0  0  0  0  0  0
  -15.7121   41.4318  -19.8050 C   0  0  0  0  0  0  0  0  0  0  0  0
  -14.5744   41.3848  -18.8286 C   0  0  0  0  0  0  0  0  0  0  0  0
  -13.5179   42.4494  -18.8561 C   0  0  0  0  0  0  0  0  0  0  0  0
  -14.4931   40.2734  -17.8246 C   0  0  0  0  0  0  0  0  0  0  0  0
 26 27  1  0  0  0
 27 28  2  0  0  0
 28 29  1  0  0  0
 29 30  2  0  0  0
 30 31  1  0  0  0
 31 32  2  0  0  0
 32 25  1  0  0  0
 25 24  1  0  0  0
 24 22  1  0  0  0
 22 23  2  0  0  0
 22 21  1  0  0  0
 21  1  1  0  0  0
  1  2  2  0  0  0
  2  3  1  0  0  0
  3  4  2  0  0  0
  4  5  1  0  0  0
  5  6  2  0  0  0
  5  7  1  0  0  0
  7  8  1  0  0  0
  8  9  2  0  0  0
  9 10  1  0  0  0
 10 12  1  0  0  0
 12 13  2  0  0  0
 13 14  1  0  0  0
 14 15  2  0  0  0
 15 16  1  0  0  0
 16 17  2  0  0  0
 16 18  1  0  0  0
  9 19  1  0  0  0
 19 20  3  0  0  0
  8 11  1  0  0  0
 31 33  1  0  0  0
 32 27  1  0  0  0
  6  1  1  0  0  0
 10  4  1  0  0  0
 17 12  1  0  0  0
M  END
> <minimizedAffinity>
-5.12677

$$$$



 32 35  0  0  0  0  0  0  0  0999 V2000
  -18.9223   44.1374  -19.2247 C   0  0  0  0  0  0  0  0  0  0  0  0
  -17.7653   44.2572  -18.2775 C   0  0  0  0  0  0  0  0  0  0  0  0
  -17.6524   43.3228  -17.1095 C   0  0  0  0  0  0  0  0  0  0  0  0
  -16.4955   43.4425  -16.1624 C   0  0  0  0  0  0  0  0  0  0  0  0
  -15.4515   44.4967  -16.3832 C   0  0  0  0  0  0  0  0  0  0  0  0
  -15.5644   45.4311  -17.5511 C   0  0  0  0  0  0  0  0  0  0  0  0
  -16.7213   45.3113  -18.4983 C   0  0  0  0  0  0  0  0  0  0  0  0
  -16.8343   46.2458  -19.6663 O   0  0  0  0  0  0  0  0  0  0  0  0
  -17.9912   46.1260  -20.6134 C   0  0  0  0  0  0  0  0  0  0  0  0
  -19.0353   45.0718  -20.3926 C   0  0  0  0  0  0  0  0  0  0  0  0
  -18.1042   47.0604  -21.7814 N   0  0  0  0  0  0  0  0  0  0  0  0
  -21.0066   40.7832  -19.6183 C   0  0  0  0  0  0  0  0  0  0  0  0
  -19.9626   41.8374  -19.8391 C   0  0  0  0  0  0  0  0  0  0  0  0
  -19.9664   43.0833  -19.0039 C   0  0  0  0  0  0  0  0  0  0  0  0
  -21.0142   43.2750  -17.9477 C   0  0  0  0  0  0  0  0  0  0  0  0
  -22.0582   42.2209  -17.7269 C   0  0  0  0  0  0  0  0  0  0  0  0
  -22.0544   40.9749  -18.5623 C   0  0  0  0  0  0  0  0  0  0  0  0
  -23.1060   42.4126  -16.6709 Br  0  0  0  0  0  0  0  0  0  0  0  0
  -20.1922   44.9521  -21.3398 C   0  0  0  0  0  0  0  0  0  0  0  0
  -21.3492   44.8323  -22.2869 N   0  0  0  0  0  0  0  0  0  0  0  0
  -14.2945   44.6164  -15.4360 O   0  0  0  0  0  0  0  0  0  0  0  0
  -13.2555   43.5359  -15.3807 C   0  0  0  0  0  0  0  0  0  0  0  0
  -12.8243   42.9771  -14.0572 O   0  0  0  0  0  0  0  0  0  0  0  0
  -12.6478   43.0142  -16.6490 C   0  0  0  0  0  0  0  0  0  0  0  0
  -13.1175   41.7115  -17.2253 O   0  0  0  0  0  0  0  0  0  0  0  0
  -14.1676   41.7005  -18.2964 C   0  0  0  0  0  0  0  0  0  0  0  0
  -14.1086   42.6982  -19.4149 C   0  0  0  0  0  0  0  0  0  0  0  0
  -15.1587   42.6872  -20.4860 C   0  0  0  0  0  0  0  0  0  0  0  0
  -16.2678   41.6785  -20.4385 C   0  0  0  0  0  0  0  0  0  0  0  0
  -16.3269   40.6808  -19.3200 C   0  0  0  0  0  0  0  0  0  0  0  0
  -15.2768   40.6917  -18.2489 C   0  0  0  0  0  0  0  0  0  0  0  0
  -17.4360   39.6720  -19.2726 Cl  0  0  0  0  0  0  0  0  0  0  0  0
 12 13  2  0  0  0
 13 14  1  0  0  0
 14 15  2  0  0  0
 15 16  1  0  0  0
 16 17  2  0  0  0
 16 18  1  0  0  0
  1 14  1  0  0  0
  1  2  1  0  0  0
  2  3  2  0  0  0
  3  4  1  0  0  0
  4  5  2  0  0  0
  5  6  1  0  0  0
  6  7  2  0  0  0
  7  8  1  0  0  0
  8  9  1  0  0  0
  9 10  2  0  0  0
 10 19  1  0  0  0
 19 20  3  0  0  0
  9 11  1  0  0  0
  5 21  1  0  0  0
 21 22  1  0  0  0
 22 23  2  0  0  0
 22 24  1  0  0  0
 24 25  1  0  0  0
 25 26  1  0  0  0
 26 27  2  0  0  0
 27 28  1  0  0  0
 28 29  2  0  0  0
 29 30  1  0  0  0
 30 31  2  0  0  0
 30 32  1  0  0  0
 17 12  1  0  0  0
 10  1  1  0  0  0
  7  2  1  0  0  0
 31 26  1  0  0  0
M  END
> <minimizedAffinity>
-5.74582

$$$$



 32 35  0  0  0  0  0  0  0  0999 V2000
  -15.9375   40.7200  -19.8070 C   0  0  0  0  0  0  0  0  0  0  0  0
  -15.4150   40.5845  -18.4076 C   0  0  0  0  0  0  0  0  0  0  0  0
  -14.5487   41.6606  -17.8231 C   0  0  0  0  0  0  0  0  0  0  0  0
  -14.2050   42.8720  -18.6381 C   0  0  0  0  0  0  0  0  0  0  0  0
  -14.7276   43.0075  -20.0376 C   0  0  0  0  0  0  0  0  0  0  0  0
  -15.5938   41.9314  -20.6220 C   0  0  0  0  0  0  0  0  0  0  0  0
  -14.3839   44.2190  -20.8525 O   0  0  0  0  0  0  0  0  0  0  0  0
  -13.5176   45.2950  -20.2681 C   0  0  0  0  0  0  0  0  0  0  0  0
  -12.9949   45.1596  -18.8685 C   0  0  0  0  0  0  0  0  0  0  0  0
  -13.3386   43.9481  -18.0536 C   0  0  0  0  0  0  0  0  0  0  0  0
  -13.1739   46.5065  -21.0831 N   0  0  0  0  0  0  0  0  0  0  0  0
  -12.8161   43.8127  -16.6541 C   0  0  0  0  0  0  0  0  0  0  0  0
  -13.6751   44.2113  -15.4909 C   0  0  0  0  0  0  0  0  0  0  0  0
  -13.1525   44.0758  -14.0913 C   0  0  0  0  0  0  0  0  0  0  0  0
  -11.7708   43.5418  -13.8551 C   0  0  0  0  0  0  0  0  0  0  0  0
  -10.9118   43.1432  -15.0184 C   0  0  0  0  0  0  0  0  0  0  0  0
  -11.4343   43.2786  -16.4178 C   0  0  0  0  0  0  0  0  0  0  0  0
  -11.2482   43.4063  -12.4557 Br  0  0  0  0  0  0  0  0  0  0  0  0
  -12.1287   46.2356  -18.2841 C   0  0  0  0  0  0  0  0  0  0  0  0
  -11.2623   47.3117  -17.6996 N   0  0  0  0  0  0  0  0  0  0  0  0
  -16.8039   39.6439  -20.3916 O   0  0  0  0  0  0  0  0  0  0  0  0
  -18.2731   39.6177  -20.0905 C   0  0  0  0  0  0  0  0  0  0  0  0
  -18.9705   38.3079  -19.8713 O   0  0  0  0  0  0  0  0  0  0  0  0
  -19.0449   40.9013  -20.0085 C   0  0  0  0  0  0  0  0  0  0  0  0
  -19.1884   41.6075  -18.6930 O   0  0  0  0  0  0  0  0  0  0  0  0
  -17.4413   46.2249  -20.3141 C   0  0  0  0  0  0  0  0  0  0  0  0
  -17.5499   45.1800  -19.2434 C   0  0  0  0  0  0  0  0  0  0  0  0
  -16.8934   45.3988  -17.9126 C   0  0  0  0  0  0  0  0  0  0  0  0
  -17.0020   44.3539  -16.8419 C   0  0  0  0  0  0  0  0  0  0  0  0
  -17.7669   43.0901  -17.1020 C   0  0  0  0  0  0  0  0  0  0  0  0
  -18.4234   42.8712  -18.4329 C   0  0  0  0  0  0  0  0  0  0  0  0
  -18.3149   43.9162  -19.5036 C   0  0  0  0  0  0  0  0  0  0  0  0
 26 27  1  0  0  0
 27 28  2  0  0  0
 28 29  1  0  0  0
 29 30  2  0  0  0
 30 31  1  0  0  0
 31 32  2  0  0  0
 31 25  1  0  0  0
 25 24  1  0  0  0
 24 22  1  0  0  0
 22 23  2  0  0  0
 22 21  1  0  0  0
 21  1  1  0  0  0
  1  2  2  0  0  0
  2  3  1  0  0  0
  3  4  2  0  0  0
  4  5  1  0  0  0
  5  6  2  0  0  0
  5  7  1  0  0  0
  7  8  1  0  0  0
  8  9  2  0  0  0
  9 10  1  0  0  0
 10 12  1  0  0  0
 12 13  2  0  0  0
 13 14  1  0  0  0
 14 15  2  0  0  0
 15 16  1  0  0  0
 16 17  2  0  0  0
 15 18  1  0  0  0
  9 19  1  0  0  0
 19 20  3  0  0  0
  8 11  1  0  0  0
 32 27  1  0  0  0
  6  1  1  0  0  0
 10  4  1  0  0  0
 17 12  1  0  0  0
M  END
> <minimizedAffinity>
-5.42078

$$$$



 33 36  0  0  0  0  0  0  0  0999 V2000
  -14.8433   41.6780  -19.5084 C   0  0  0  0  0  0  0  0  0  0  0  0
  -15.9356   41.3941  -18.5203 C   0  0  0  0  0  0  0  0  0  0  0  0
  -17.3118   41.9471  -18.7443 C   0  0  0  0  0  0  0  0  0  0  0  0
  -17.5958   42.7839  -19.9563 C   0  0  0  0  0  0  0  0  0  0  0  0
  -16.5035   43.0678  -20.9444 C   0  0  0  0  0  0  0  0  0  0  0  0
  -15.1273   42.5149  -20.7205 C   0  0  0  0  0  0  0  0  0  0  0  0
  -16.7875   43.9047  -22.1564 O   0  0  0  0  0  0  0  0  0  0  0  0
  -18.1637   44.4576  -22.3804 C   0  0  0  0  0  0  0  0  0  0  0  0
  -19.2561   44.1737  -21.3923 C   0  0  0  0  0  0  0  0  0  0  0  0
  -18.9721   43.3369  -20.1803 C   0  0  0  0  0  0  0  0  0  0  0  0
  -18.4477   45.2945  -23.5924 N   0  0  0  0  0  0  0  0  0  0  0  0
  -20.0643   43.0530  -19.1922 C   0  0  0  0  0  0  0  0  0  0  0  0
  -20.7900   41.7408  -19.2328 C   0  0  0  0  0  0  0  0  0  0  0  0
  -21.8823   41.4569  -18.2446 C   0  0  0  0  0  0  0  0  0  0  0  0
  -22.2489   42.4852  -17.2159 C   0  0  0  0  0  0  0  0  0  0  0  0
  -21.5232   43.7973  -17.1753 C   0  0  0  0  0  0  0  0  0  0  0  0
  -20.4310   44.0812  -18.1634 C   0  0  0  0  0  0  0  0  0  0  0  0
  -23.3411   42.2013  -16.2278 Br  0  0  0  0  0  0  0  0  0  0  0  0
  -20.6323   44.7267  -21.6162 C   0  0  0  0  0  0  0  0  0  0  0  0
  -22.0086   45.2796  -21.8402 N   0  0  0  0  0  0  0  0  0  0  0  0
  -13.4670   41.1251  -19.2845 O   0  0  0  0  0  0  0  0  0  0  0  0
  -12.3721   42.0190  -18.7823 C   0  0  0  0  0  0  0  0  0  0  0  0
  -11.2415   42.4027  -19.6903 O   0  0  0  0  0  0  0  0  0  0  0  0
  -12.4079   42.5292  -17.3722 C   0  0  0  0  0  0  0  0  0  0  0  0
  -12.7502   43.9644  -17.1023 O   0  0  0  0  0  0  0  0  0  0  0  0
  -14.7457   43.1734  -15.0066 C   0  0  0  0  0  0  0  0  0  0  0  0
  -15.1703   44.0333  -16.1599 C   0  0  0  0  0  0  0  0  0  0  0  0
  -16.5928   44.4977  -16.2654 C   0  0  0  0  0  0  0  0  0  0  0  0
  -17.0173   45.3576  -17.4188 C   0  0  0  0  0  0  0  0  0  0  0  0
  -16.0196   45.7532  -18.4666 C   0  0  0  0  0  0  0  0  0  0  0  0
  -14.5972   45.2888  -18.3612 C   0  0  0  0  0  0  0  0  0  0  0  0
  -14.1726   44.4288  -17.2078 C   0  0  0  0  0  0  0  0  0  0  0  0
  -13.5994   45.6843  -19.4090 C   0  0  0  0  0  0  0  0  0  0  0  0
 26 27  1  0  0  0
 27 28  2  0  0  0
 28 29  1  0  0  0
 29 30  2  0  0  0
 30 31  1  0  0  0
 31 32  2  0  0  0
 32 25  1  0  0  0
 25 24  1  0  0  0
 24 22  1  0  0  0
 22 23  2  0  0  0
 22 21  1  0  0  0
 21  1  1  0  0  0
  1  2  2  0  0  0
  2  3  1  0  0  0
  3  4  2  0  0  0
  4  5  1  0  0  0
  5  6  2  0  0  0
  5  7  1  0  0  0
  7  8  1  0  0  0
  8  9  2  0  0  0
  9 10  1  0  0  0
 10 12  1  0  0  0
 12 13  2  0  0  0
 13 14  1  0  0  0
 14 15  2  0  0  0
 15 16  1  0  0  0
 16 17  2  0  0  0
 15 18  1  0  0  0
  9 19  1  0  0  0
 19 20  3  0  0  0
  8 11  1  0  0  0
 31 33  1  0  0  0
 32 27  1  0  0  0
  6  1  1  0  0  0
 10  4  1  0  0  0
 17 12  1  0  0  0
M  END
> <minimizedAffinity>
-5.16962

$$$$



 33 36  0  0  0  0  0  0  0  0999 V2000
  -18.2913   44.0634  -17.5318 C   0  0  0  0  0  0  0  0  0  0  0  0
  -17.4142   45.1702  -17.0264 C   0  0  0  0  0  0  0  0  0  0  0  0
  -15.9423   44.9403  -16.8513 C   0  0  0  0  0  0  0  0  0  0  0  0
  -15.3475   43.6035  -17.1817 C   0  0  0  0  0  0  0  0  0  0  0  0
  -16.2246   42.4966  -17.6872 C   0  0  0  0  0  0  0  0  0  0  0  0
  -17.6965   42.7266  -17.8622 C   0  0  0  0  0  0  0  0  0  0  0  0
  -15.6298   41.1598  -18.0176 O   0  0  0  0  0  0  0  0  0  0  0  0
  -14.1580   40.9299  -17.8426 C   0  0  0  0  0  0  0  0  0  0  0  0
  -13.2808   42.0368  -17.3371 C   0  0  0  0  0  0  0  0  0  0  0  0
  -13.8756   43.3736  -17.0067 C   0  0  0  0  0  0  0  0  0  0  0  0
  -13.5632   39.5931  -18.1730 N   0  0  0  0  0  0  0  0  0  0  0  0
  -12.9985   44.4805  -16.5012 C   0  0  0  0  0  0  0  0  0  0  0  0
  -12.5452   45.5638  -17.4345 C   0  0  0  0  0  0  0  0  0  0  0  0
  -11.6681   46.6708  -16.9290 C   0  0  0  0  0  0  0  0  0  0  0  0
  -11.2443   46.6943  -15.4903 C   0  0  0  0  0  0  0  0  0  0  0  0
  -11.6976   45.6109  -14.5571 C   0  0  0  0  0  0  0  0  0  0  0  0
  -12.5747   44.5041  -15.0625 C   0  0  0  0  0  0  0  0  0  0  0  0
  -10.3672   47.8012  -14.9848 Br  0  0  0  0  0  0  0  0  0  0  0  0
  -11.8089   41.8069  -17.1621 C   0  0  0  0  0  0  0  0  0  0  0  0
  -10.3370   41.5770  -16.9870 N   0  0  0  0  0  0  0  0  0  0  0  0
  -19.7632   44.2933  -17.7069 O   0  0  0  0  0  0  0  0  0  0  0  0
  -20.4899   43.6593  -18.8557 C   0  0  0  0  0  0  0  0  0  0  0  0
  -21.3554   42.4563  -18.6236 O   0  0  0  0  0  0  0  0  0  0  0  0
  -21.4454   45.0782  -20.8112 C   0  0  0  0  0  0  0  0  0  0  0  0
  -20.3512   44.2282  -20.2367 C   0  0  0  0  0  0  0  0  0  0  0  0
  -19.1181   43.9471  -21.0432 O   0  0  0  0  0  0  0  0  0  0  0  0
  -17.8661   44.7362  -20.7990 C   0  0  0  0  0  0  0  0  0  0  0  0
  -17.9494   46.2078  -20.5207 C   0  0  0  0  0  0  0  0  0  0  0  0
  -16.6974   46.9971  -20.2765 C   0  0  0  0  0  0  0  0  0  0  0  0
  -15.3621   46.3147  -20.3106 C   0  0  0  0  0  0  0  0  0  0  0  0
  -15.2787   44.8430  -20.5889 C   0  0  0  0  0  0  0  0  0  0  0  0
  -16.5307   44.0538  -20.8331 C   0  0  0  0  0  0  0  0  0  0  0  0
  -16.4474   42.5823  -21.1114 F   0  0  0  0  0  0  0  0  0  0  0  0
 25 24  1  0  0  0
 25 22  1  0  0  0
 22 23  2  0  0  0
 22 21  1  0  0  0
 21  1  1  0  0  0
  1  2  2  0  0  0
  2  3  1  0  0  0
  3  4  2  0  0  0
  4  5  1  0  0  0
  5  6  2  0  0  0
  5  7  1  0  0  0
  7  8  1  0  0  0
  8  9  2  0  0  0
  9 10  1  0  0  0
 10 12  1  0  0  0
 12 13  2  0  0  0
 13 14  1  0  0  0
 14 15  2  0  0  0
 15 16  1  0  0  0
 16 17  2  0  0  0
 15 18  1  0  0  0
  9 19  1  0  0  0
 19 20  3  0  0  0
  8 11  1  0  0  0
 25 26  1  0  0  0
 26 27  1  0  0  0
 27 28  2  0  0  0
 28 29  1  0  0  0
 29 30  2  0  0  0
 30 31  1  0  0  0
 31 32  2  0  0  0
 32 33  1  0  0  0
  6  1  1  0  0  0
 10  4  1  0  0  0
 17 12  1  0  0  0
 32 27  1  0  0  0
M  END
> <minimizedAffinity>
-5.49932

$$$$



 33 36  0  0  0  0  0  0  0  0999 V2000
  -16.0750   40.5517  -19.8792 C   0  0  0  0  0  0  0  0  0  0  0  0
  -15.5413   40.3802  -18.4879 C   0  0  0  0  0  0  0  0  0  0  0  0
  -14.6948   41.4543  -17.8717 C   0  0  0  0  0  0  0  0  0  0  0  0
  -14.3819   42.6998  -18.6468 C   0  0  0  0  0  0  0  0  0  0  0  0
  -14.9156   42.8713  -20.0381 C   0  0  0  0  0  0  0  0  0  0  0  0
  -15.7621   41.7972  -20.6543 C   0  0  0  0  0  0  0  0  0  0  0  0
  -14.6027   44.1168  -20.8132 O   0  0  0  0  0  0  0  0  0  0  0  0
  -13.7562   45.1908  -20.1971 C   0  0  0  0  0  0  0  0  0  0  0  0
  -13.2225   45.0194  -18.8057 C   0  0  0  0  0  0  0  0  0  0  0  0
  -13.5354   43.7739  -18.0306 C   0  0  0  0  0  0  0  0  0  0  0  0
  -13.4433   46.4364  -20.9722 N   0  0  0  0  0  0  0  0  0  0  0  0
  -13.0017   43.6025  -16.6393 C   0  0  0  0  0  0  0  0  0  0  0  0
  -13.8365   44.0072  -15.4606 C   0  0  0  0  0  0  0  0  0  0  0  0
  -13.3028   43.8357  -14.0692 C   0  0  0  0  0  0  0  0  0  0  0  0
  -11.9343   43.2595  -13.8566 C   0  0  0  0  0  0  0  0  0  0  0  0
  -11.0995   42.8548  -15.0353 C   0  0  0  0  0  0  0  0  0  0  0  0
  -11.6331   43.0262  -16.4266 C   0  0  0  0  0  0  0  0  0  0  0  0
  -10.7983   42.6215  -17.6053 Cl  0  0  0  0  0  0  0  0  0  0  0  0
  -11.4006   43.0881  -12.4653 Cl  0  0  0  0  0  0  0  0  0  0  0  0
  -12.3759   46.0935  -18.1895 C   0  0  0  0  0  0  0  0  0  0  0  0
  -11.5293   47.1676  -17.5733 N   0  0  0  0  0  0  0  0  0  0  0  0
  -16.9216   39.4776  -20.4954 O   0  0  0  0  0  0  0  0  0  0  0  0
  -18.4030   39.4632  -20.2607 C   0  0  0  0  0  0  0  0  0  0  0  0
  -19.0790   38.2016  -19.8117 O   0  0  0  0  0  0  0  0  0  0  0  0
  -19.2086   40.7103  -20.4750 C   0  0  0  0  0  0  0  0  0  0  0  0
  -19.6519   41.5282  -19.2985 O   0  0  0  0  0  0  0  0  0  0  0  0
  -18.6220   43.8771  -19.7128 C   0  0  0  0  0  0  0  0  0  0  0  0
  -17.7853   45.0300  -19.2428 C   0  0  0  0  0  0  0  0  0  0  0  0
  -17.1419   44.9867  -17.8885 C   0  0  0  0  0  0  0  0  0  0  0  0
  -17.3351   43.7906  -17.0042 C   0  0  0  0  0  0  0  0  0  0  0  0
  -18.1717   42.6378  -17.4742 C   0  0  0  0  0  0  0  0  0  0  0  0
  -18.8153   42.6810  -18.8285 C   0  0  0  0  0  0  0  0  0  0  0  0
  -16.3052   46.1396  -17.4185 F   0  0  0  0  0  0  0  0  0  0  0  0
 27 28  2  0  0  0
 28 29  1  0  0  0
 29 30  2  0  0  0
 30 31  1  0  0  0
 31 32  2  0  0  0
 32 26  1  0  0  0
 26 25  1  0  0  0
 25 23  1  0  0  0
 23 24  2  0  0  0
 23 22  1  0  0  0
 22  1  1  0  0  0
  1  2  2  0  0  0
  2  3  1  0  0  0
  3  4  2  0  0  0
  4  5  1  0  0  0
  5  6  2  0  0  0
  5  7  1  0  0  0
  7  8  1  0  0  0
  8  9  2  0  0  0
  9 10  1  0  0  0
 10 12  1  0  0  0
 12 13  2  0  0  0
 13 14  1  0  0  0
 14 15  2  0  0  0
 15 16  1  0  0  0
 16 17  2  0  0  0
 17 18  1  0  0  0
 15 19  1  0  0  0
  9 20  1  0  0  0
 20 21  3  0  0  0
  8 11  1  0  0  0
 29 33  1  0  0  0
 32 27  1  0  0  0
  6  1  1  0  0  0
 10  4  1  0  0  0
 17 12  1  0  0  0
M  END
> <minimizedAffinity>
-5.49342

$$$$



 33 36  0  0  0  0  0  0  0  0999 V2000
  -19.6066   44.3974  -19.3785 C   0  0  0  0  0  0  0  0  0  0  0  0
  -18.2774   44.5828  -18.7083 C   0  0  0  0  0  0  0  0  0  0  0  0
  -18.0156   43.9499  -17.3739 C   0  0  0  0  0  0  0  0  0  0  0  0
  -16.6865   44.1353  -16.7037 C   0  0  0  0  0  0  0  0  0  0  0  0
  -15.6192   44.9535  -17.3681 C   0  0  0  0  0  0  0  0  0  0  0  0
  -15.8810   45.5864  -18.7026 C   0  0  0  0  0  0  0  0  0  0  0  0
  -17.2101   45.4010  -19.3727 C   0  0  0  0  0  0  0  0  0  0  0  0
  -17.4720   46.0339  -20.7073 O   0  0  0  0  0  0  0  0  0  0  0  0
  -18.8011   45.8485  -21.3774 C   0  0  0  0  0  0  0  0  0  0  0  0
  -19.8684   45.0303  -20.7130 C   0  0  0  0  0  0  0  0  0  0  0  0
  -19.0629   46.4814  -22.7120 N   0  0  0  0  0  0  0  0  0  0  0  0
  -22.6306   43.3857  -17.0161 C   0  0  0  0  0  0  0  0  0  0  0  0
  -21.5633   44.2039  -17.6804 C   0  0  0  0  0  0  0  0  0  0  0  0
  -20.6739   43.5792  -18.7142 C   0  0  0  0  0  0  0  0  0  0  0  0
  -20.8517   42.1363  -19.0835 C   0  0  0  0  0  0  0  0  0  0  0  0
  -21.9190   41.3181  -18.4192 C   0  0  0  0  0  0  0  0  0  0  0  0
  -22.8085   41.9428  -17.3854 C   0  0  0  0  0  0  0  0  0  0  0  0
  -22.0968   39.8752  -18.7885 F   0  0  0  0  0  0  0  0  0  0  0  0
  -21.1975   44.8449  -21.3832 C   0  0  0  0  0  0  0  0  0  0  0  0
  -22.5266   44.6596  -22.0533 N   0  0  0  0  0  0  0  0  0  0  0  0
  -14.2901   45.1389  -16.6979 O   0  0  0  0  0  0  0  0  0  0  0  0
  -13.1705   44.1798  -16.9745 C   0  0  0  0  0  0  0  0  0  0  0  0
  -11.8261   44.6969  -17.3930 O   0  0  0  0  0  0  0  0  0  0  0  0
  -13.3952   42.7035  -16.8326 C   0  0  0  0  0  0  0  0  0  0  0  0
  -13.4343   41.8302  -18.0515 O   0  0  0  0  0  0  0  0  0  0  0  0
  -14.6624   41.7984  -18.9122 C   0  0  0  0  0  0  0  0  0  0  0  0
  -15.8531   40.9894  -18.4904 C   0  0  0  0  0  0  0  0  0  0  0  0
  -17.0812   40.9576  -19.3510 C   0  0  0  0  0  0  0  0  0  0  0  0
  -17.1186   41.7347  -20.6335 C   0  0  0  0  0  0  0  0  0  0  0  0
  -15.9279   42.5436  -21.0553 C   0  0  0  0  0  0  0  0  0  0  0  0
  -14.6998   42.5754  -20.1947 C   0  0  0  0  0  0  0  0  0  0  0  0
  -13.5091   43.3843  -20.6165 Cl  0  0  0  0  0  0  0  0  0  0  0  0
  -18.3466   41.7029  -21.4942 Cl  0  0  0  0  0  0  0  0  0  0  0  0
 12 13  2  0  0  0
 13 14  1  0  0  0
 14 15  2  0  0  0
 15 16  1  0  0  0
 16 17  2  0  0  0
 16 18  1  0  0  0
  1 14  1  0  0  0
  1  2  1  0  0  0
  2  3  2  0  0  0
  3  4  1  0  0  0
  4  5  2  0  0  0
  5  6  1  0  0  0
  6  7  2  0  0  0
  7  8  1  0  0  0
  8  9  1  0  0  0
  9 10  2  0  0  0
 10 19  1  0  0  0
 19 20  3  0  0  0
  9 11  1  0  0  0
  5 21  1  0  0  0
 21 22  1  0  0  0
 22 23  2  0  0  0
 22 24  1  0  0  0
 24 25  1  0  0  0
 25 26  1  0  0  0
 26 27  2  0  0  0
 27 28  1  0  0  0
 28 29  2  0  0  0
 29 30  1  0  0  0
 30 31  2  0  0  0
 31 32  1  0  0  0
 29 33  1  0  0  0
 17 12  1  0  0  0
 10  1  1  0  0  0
  7  2  1  0  0  0
 31 26  1  0  0  0
M  END
> <minimizedAffinity>
-5.22935

$$$$



 34 38  0  0  0  0  0  0  0  0999 V2000
  -17.8306   43.5160  -17.8351 C   0  0  0  0  0  0  0  0  0  0  0  0
  -17.1952   44.5879  -18.6701 C   0  0  0  0  0  0  0  0  0  0  0  0
  -17.6550   45.3015  -19.9068 C   0  0  0  0  0  0  0  0  0  0  0  0
  -16.5902   46.2827  -20.2986 C   0  0  0  0  0  0  0  0  0  0  0  0
  -15.4724   46.1755  -19.3042 C   0  0  0  0  0  0  0  0  0  0  0  0
  -15.8463   45.1280  -18.2977 C   0  0  0  0  0  0  0  0  0  0  0  0
  -15.1328   44.5963  -17.0901 C   0  0  0  0  0  0  0  0  0  0  0  0
  -13.7839   45.1364  -16.7177 C   0  0  0  0  0  0  0  0  0  0  0  0
  -13.0703   44.6047  -15.5102 C   0  0  0  0  0  0  0  0  0  0  0  0
  -13.7057   43.5328  -14.6751 C   0  0  0  0  0  0  0  0  0  0  0  0
  -15.0545   42.9927  -15.0475 C   0  0  0  0  0  0  0  0  0  0  0  0
  -15.7682   43.5244  -16.2551 C   0  0  0  0  0  0  0  0  0  0  0  0
  -17.1170   42.9843  -16.6275 N   0  0  0  0  0  0  0  0  0  0  0  0
  -21.8773   41.8956  -18.9522 C   0  0  0  0  0  0  0  0  0  0  0  0
  -21.7691   43.1854  -18.1941 C   0  0  0  0  0  0  0  0  0  0  0  0
  -20.4201   43.7255  -17.8217 C   0  0  0  0  0  0  0  0  0  0  0  0
  -19.1795   42.9758  -18.2075 C   0  0  0  0  0  0  0  0  0  0  0  0
  -19.2877   41.6861  -18.9656 C   0  0  0  0  0  0  0  0  0  0  0  0
  -20.6367   41.1459  -19.3379 C   0  0  0  0  0  0  0  0  0  0  0  0
  -23.3387   40.2411  -20.3222 C   0  0  0  0  0  0  0  0  0  0  0  0
  -23.2262   41.3555  -19.3245 O   0  0  0  0  0  0  0  0  0  0  0  0
  -18.0471   40.9364  -19.3513 O   0  0  0  0  0  0  0  0  0  0  0  0
  -18.1568   39.5970  -20.0175 C   0  0  0  0  0  0  0  0  0  0  0  0
  -11.7214   45.1449  -15.1378 S   0  0  0  0  0  0  0  0  0  0  0  0
  -11.9344   44.6999  -13.7212 O   0  0  0  0  0  0  0  0  0  0  0  0
  -11.5085   45.5898  -16.5542 O   0  0  0  0  0  0  0  0  0  0  0  0
  -10.3725   45.6851  -14.7653 N   0  0  0  0  0  0  0  0  0  0  0  0
  -10.2650   46.9670  -13.9939 C   0  0  0  0  0  0  0  0  0  0  0  0
   -9.4821   47.0093  -12.7151 C   0  0  0  0  0  0  0  0  0  0  0  0
   -9.3745   48.2913  -11.9437 C   0  0  0  0  0  0  0  0  0  0  0  0
  -10.0497   49.5308  -12.4511 C   0  0  0  0  0  0  0  0  0  0  0  0
  -10.8326   49.4885  -13.7299 C   0  0  0  0  0  0  0  0  0  0  0  0
  -10.9402   48.2066  -14.5013 C   0  0  0  0  0  0  0  0  0  0  0  0
   -9.9422   50.8128  -11.6797 Cl  0  0  0  0  0  0  0  0  0  0  0  0
 20 21  1  0  0  0
 21 14  1  0  0  0
 14 15  2  0  0  0
 15 16  1  0  0  0
 16 17  2  0  0  0
 17 18  1  0  0  0
 18 19  2  0  0  0
 18 22  1  0  0  0
 22 23  1  0  0  0
  1 17  1  0  0  0
  1  2  1  0  0  0
  2  3  1  0  0  0
  3  4  1  0  0  0
  4  5  2  0  0  0
  6  5  1  0  0  0
  6  7  1  0  0  0
  7  8  2  0  0  0
  8  9  1  0  0  0
  9 10  2  0  0  0
 10 11  1  0  0  0
 11 12  2  0  0  0
 12 13  1  0  0  0
  9 24  1  0  0  0
 24 25  2  0  0  0
 24 26  2  0  0  0
 24 27  1  0  0  0
 27 28  1  0  0  0
 28 29  2  0  0  0
 29 30  1  0  0  0
 30 31  2  0  0  0
 31 32  1  0  0  0
 32 33  2  0  0  0
 31 34  1  0  0  0
 19 14  1  0  0  0
 13  1  1  0  0  0
  6  2  1  0  0  0
 12  7  1  0  0  0
 33 28  1  0  0  0
M  END
> <minimizedAffinity>
-6.84903

$$$$



 35 39  0  0  0  0  0  0  0  0999 V2000
  -17.8059   43.5422  -17.8549 C   0  0  0  0  0  0  0  0  0  0  0  0
  -17.0862   44.6014  -18.6361 C   0  0  0  0  0  0  0  0  0  0  0  0
  -17.4590   45.3639  -19.8729 C   0  0  0  0  0  0  0  0  0  0  0  0
  -16.3340   46.3020  -20.1958 C   0  0  0  0  0  0  0  0  0  0  0  0
  -15.2659   46.1194  -19.1585 C   0  0  0  0  0  0  0  0  0  0  0  0
  -15.7308   45.0683  -18.1946 C   0  0  0  0  0  0  0  0  0  0  0  0
  -15.0951   44.4761  -16.9719 C   0  0  0  0  0  0  0  0  0  0  0  0
  -13.7397   44.9430  -16.5303 C   0  0  0  0  0  0  0  0  0  0  0  0
  -13.1040   44.3507  -15.3076 C   0  0  0  0  0  0  0  0  0  0  0  0
  -13.8236   43.2916  -14.5264 C   0  0  0  0  0  0  0  0  0  0  0  0
  -15.1789   42.8247  -14.9679 C   0  0  0  0  0  0  0  0  0  0  0  0
  -15.8148   43.4169  -16.1907 C   0  0  0  0  0  0  0  0  0  0  0  0
  -17.1701   42.9500  -16.6322 N   0  0  0  0  0  0  0  0  0  0  0  0
  -22.9381   44.2881  -18.1774 C   0  0  0  0  0  0  0  0  0  0  0  0
  -21.7273   43.4482  -18.4576 C   0  0  0  0  0  0  0  0  0  0  0  0
  -21.8719   42.1412  -19.1794 C   0  0  0  0  0  0  0  0  0  0  0  0
  -20.6612   41.3013  -19.4596 C   0  0  0  0  0  0  0  0  0  0  0  0
  -19.3059   41.7683  -19.0181 C   0  0  0  0  0  0  0  0  0  0  0  0
  -19.1613   43.0753  -18.2964 C   0  0  0  0  0  0  0  0  0  0  0  0
  -20.3720   43.9153  -18.0161 C   0  0  0  0  0  0  0  0  0  0  0  0
  -18.0951   40.9284  -19.2984 C   0  0  0  0  0  0  0  0  0  0  0  0
  -11.7486   44.8177  -14.8661 S   0  0  0  0  0  0  0  0  0  0  0  0
  -12.1281   44.5675  -13.4367 O   0  0  0  0  0  0  0  0  0  0  0  0
  -11.3691   45.0678  -16.2955 O   0  0  0  0  0  0  0  0  0  0  0  0
  -10.3932   45.2846  -14.4246 N   0  0  0  0  0  0  0  0  0  0  0  0
  -10.2254   46.6574  -13.8439 C   0  0  0  0  0  0  0  0  0  0  0  0
   -9.3971   46.8531  -12.6087 C   0  0  0  0  0  0  0  0  0  0  0  0
   -9.2292   48.2260  -12.0280 C   0  0  0  0  0  0  0  0  0  0  0  0
   -9.8897   49.4030  -12.6824 C   0  0  0  0  0  0  0  0  0  0  0  0
  -10.7180   49.2073  -13.9176 C   0  0  0  0  0  0  0  0  0  0  0  0
  -10.8858   47.8345  -14.4983 C   0  0  0  0  0  0  0  0  0  0  0  0
  -11.3784   50.3844  -14.5720 O   0  0  0  0  0  0  0  0  0  0  0  0
  -10.8928   50.8715  -15.9050 C   0  0  0  0  0  0  0  0  0  0  0  0
   -9.7219   50.7759  -12.1017 O   0  0  0  0  0  0  0  0  0  0  0  0
  -10.7603   51.3285  -11.1710 C   0  0  0  0  0  0  0  0  0  0  0  0
 14 15  1  0  0  0
 15 16  2  0  0  0
 16 17  1  0  0  0
 17 18  2  0  0  0
 18 19  1  0  0  0
 19 20  2  0  0  0
  1 19  1  0  0  0
  1  2  1  0  0  0
  2  3  1  0  0  0
  3  4  1  0  0  0
  4  5  2  0  0  0
  6  5  1  0  0  0
  6  7  1  0  0  0
  7  8  2  0  0  0
  8  9  1  0  0  0
  9 10  2  0  0  0
 10 11  1  0  0  0
 11 12  2  0  0  0
 12 13  1  0  0  0
  9 22  1  0  0  0
 22 23  2  0  0  0
 22 24  2  0  0  0
 22 25  1  0  0  0
 25 26  1  0  0  0
 26 27  2  0  0  0
 27 28  1  0  0  0
 28 29  2  0  0  0
 29 30  1  0  0  0
 30 31  2  0  0  0
 30 32  1  0  0  0
 32 33  1  0  0  0
 29 34  1  0  0  0
 34 35  1  0  0  0
 18 21  1  0  0  0
 20 15  1  0  0  0
 13  1  1  0  0  0
  6  2  1  0  0  0
 12  7  1  0  0  0
 31 26  1  0  0  0
M  END
> <minimizedAffinity>
-7.18048

$$$$



 31 34  0  0  0  0  0  0  0  0999 V2000
  -12.6245   43.4858  -14.2049 C   0  0  0  0  0  0  0  0  0  0  0  0
  -14.3227   44.1561  -16.0533 N   0  0  0  0  0  0  0  0  0  0  0  0
  -14.0167   43.4562  -14.7624 C   0  0  0  0  0  0  0  0  0  0  0  0
  -15.1030   42.7266  -14.0290 O   0  0  0  0  0  0  0  0  0  0  0  0
  -18.4993   44.0671  -17.7260 C   0  0  0  0  0  0  0  0  0  0  0  0
  -17.6609   42.8234  -17.7356 C   0  0  0  0  0  0  0  0  0  0  0  0
  -16.2687   42.8531  -17.1780 C   0  0  0  0  0  0  0  0  0  0  0  0
  -15.7149   44.1265  -16.6109 C   0  0  0  0  0  0  0  0  0  0  0  0
  -16.5533   45.3702  -16.6013 C   0  0  0  0  0  0  0  0  0  0  0  0
  -17.9455   45.3406  -17.1589 C   0  0  0  0  0  0  0  0  0  0  0  0
  -22.6759   43.9782  -19.3987 C   0  0  0  0  0  0  0  0  0  0  0  0
  -22.4609   44.1885  -17.9292 C   0  0  0  0  0  0  0  0  0  0  0  0
  -21.0687   44.2182  -17.3717 C   0  0  0  0  0  0  0  0  0  0  0  0
  -19.8915   44.0375  -18.2836 C   0  0  0  0  0  0  0  0  0  0  0  0
  -20.1066   43.8272  -19.7531 C   0  0  0  0  0  0  0  0  0  0  0  0
  -21.4988   43.7975  -20.3107 C   0  0  0  0  0  0  0  0  0  0  0  0
  -11.5298   44.1825  -14.9576 S   0  0  0  0  0  0  0  0  0  0  0  0
  -10.9087   45.4273  -14.3967 C   0  0  0  0  0  0  0  0  0  0  0  0
   -9.9028   45.3297  -13.2883 N   0  0  0  0  0  0  0  0  0  0  0  0
   -9.2816   46.5745  -12.7275 N   0  0  0  0  0  0  0  0  0  0  0  0
   -9.6663   47.9170  -13.2750 C   0  0  0  0  0  0  0  0  0  0  0  0
  -10.6722   48.0146  -14.3835 C   0  0  0  0  0  0  0  0  0  0  0  0
  -11.0569   49.3570  -14.9311 O   0  0  0  0  0  0  0  0  0  0  0  0
  -11.2934   46.7698  -14.9444 N   0  0  0  0  0  0  0  0  0  0  0  0
   -9.0451   49.1618  -12.7142 C   0  0  0  0  0  0  0  0  0  0  0  0
   -8.0998   50.0770  -13.4344 C   0  0  0  0  0  0  0  0  0  0  0  0
   -7.7306   51.1908  -12.5000 C   0  0  0  0  0  0  0  0  0  0  0  0
   -8.4479   50.9640  -11.2023 S   0  0  0  0  0  0  0  0  0  0  0  0
   -9.2603   49.7100  -11.3347 C   0  0  0  0  0  0  0  0  0  0  0  0
  -10.1344   49.1097  -10.2737 Cl  0  0  0  0  0  0  0  0  0  0  0  0
   -6.8065   52.3312  -12.8091 Cl  0  0  0  0  0  0  0  0  0  0  0  0
 11 12  2  0  0  0
 12 13  1  0  0  0
 13 14  2  0  0  0
 14 15  1  0  0  0
 15 16  2  0  0  0
 14  5  1  0  0  0
  5  6  2  0  0  0
  6  7  1  0  0  0
  7  8  2  0  0  0
  8  9  1  0  0  0
  9 10  2  0  0  0
  8  2  1  0  0  0
  2  3  1  0  0  0
  3  4  2  0  0  0
  3  1  1  0  0  0
  1 17  1  0  0  0
 17 18  1  0  0  0
 18 19  1  0  0  0
 19 20  1  0  0  0
 20 21  2  0  0  0
 21 22  1  0  0  0
 22 23  2  0  0  0
 22 24  1  0  0  0
 21 25  1  0  0  0
 25 26  1  0  0  0
 26 27  2  0  0  0
 27 28  1  0  0  0
 28 29  1  0  0  0
 29 30  1  0  0  0
 27 31  1  0  0  0
 16 11  1  0  0  0
 10  5  1  0  0  0
 24 18  2  0  0  0
 29 25  2  0  0  0
M  END
> <minimizedAffinity>
-7.04467

$$$$



 25 26  0  0  0  0  0  0  0  0999 V2000
  -12.1102   45.1076  -15.6476 C   0  0  0  0  0  0  0  0  0  0  0  0
  -11.3728   46.4138  -15.6486 C   0  0  0  0  0  0  0  0  0  0  0  0
  -10.6353   47.7200  -15.6496 Cl  0  0  0  0  0  0  0  0  0  0  0  0
  -11.7418   46.6210  -17.0876 Cl  0  0  0  0  0  0  0  0  0  0  0  0
  -11.0037   46.2065  -14.2096 Cl  0  0  0  0  0  0  0  0  0  0  0  0
  -14.5402   44.2041  -15.8165 C   0  0  0  0  0  0  0  0  0  0  0  0
  -14.3997   43.5730  -14.4630 O   0  0  0  0  0  0  0  0  0  0  0  0
  -13.3955   44.9714  -16.4088 N   0  0  0  0  0  0  0  0  0  0  0  0
  -18.1420   45.0189  -17.2704 C   0  0  0  0  0  0  0  0  0  0  0  0
  -16.8567   45.1551  -16.5092 C   0  0  0  0  0  0  0  0  0  0  0  0
  -15.8256   44.0678  -16.5778 C   0  0  0  0  0  0  0  0  0  0  0  0
  -16.0797   42.8445  -17.4077 C   0  0  0  0  0  0  0  0  0  0  0  0
  -17.3650   42.7083  -18.1689 C   0  0  0  0  0  0  0  0  0  0  0  0
  -18.3961   43.7955  -18.1003 C   0  0  0  0  0  0  0  0  0  0  0  0
  -17.6192   41.4849  -18.9988 I   0  0  0  0  0  0  0  0  0  0  0  0
  -11.5623   43.9376  -14.8853 N   0  0  0  0  0  0  0  0  0  0  0  0
  -10.6256   42.9774  -15.5565 C   0  0  0  0  0  0  0  0  0  0  0  0
   -9.1523   43.0532  -15.2849 C   0  0  0  0  0  0  0  0  0  0  0  0
   -8.2156   42.0930  -15.9560 C   0  0  0  0  0  0  0  0  0  0  0  0
   -8.7521   41.0570  -16.8989 C   0  0  0  0  0  0  0  0  0  0  0  0
  -10.2253   40.9812  -17.1705 C   0  0  0  0  0  0  0  0  0  0  0  0
  -11.1621   41.9414  -16.4993 C   0  0  0  0  0  0  0  0  0  0  0  0
   -7.8153   40.0968  -17.5700 N   0  0  0  0  0  0  0  0  0  0  0  0
   -7.9382   39.8341  -19.0417 O   0  0  0  0  0  0  0  0  0  0  0  0
   -6.7557   39.3994  -16.7696 O   0  0  0  0  0  0  0  0  0  0  0  0
  9 10  2  0  0  0
 10 11  1  0  0  0
 11 12  2  0  0  0
 12 13  1  0  0  0
 13 14  2  0  0  0
 13 15  1  0  0  0
 11  6  1  0  0  0
  6  7  2  0  0  0
  6  8  1  0  0  0
  1  8  1  0  0  0
  1  2  1  0  0  0
  2  3  1  0  0  0
  2  4  1  0  0  0
  2  5  1  0  0  0
  1 16  1  0  0  0
 16 17  1  0  0  0
 17 18  2  0  0  0
 18 19  1  0  0  0
 19 20  2  0  0  0
 20 21  1  0  0  0
 21 22  2  0  0  0
 20 23  1  0  0  0
 23 24  2  0  0  0
 23 25  1  0  0  0
 14  9  1  0  0  0
 22 17  1  0  0  0
M  CHG 1  23   1
M  CHG 1  25  -1
M  END
> <minimizedAffinity>
-5.99265

$$$$



 33 36  0  0  0  0  0  0  0  0999 V2000
  -15.5275   44.0955  -16.3815 C   0  0  0  0  0  0  0  0  0  0  0  0
  -15.7562   42.8960  -17.2527 C   0  0  0  0  0  0  0  0  0  0  0  0
  -14.6395   41.9258  -17.5013 C   0  0  0  0  0  0  0  0  0  0  0  0
  -14.8681   40.7264  -18.3726 N   0  0  0  0  0  0  0  0  0  0  0  0
  -16.2135   40.4972  -18.9952 C   0  0  0  0  0  0  0  0  0  0  0  0
  -17.3301   41.4674  -18.7466 C   0  0  0  0  0  0  0  0  0  0  0  0
  -18.6754   41.2381  -19.3692 C   0  0  0  0  0  0  0  0  0  0  0  0
  -17.1014   42.6668  -17.8753 C   0  0  0  0  0  0  0  0  0  0  0  0
  -18.2181   43.6370  -17.6267 O   0  0  0  0  0  0  0  0  0  0  0  0
  -11.8820   45.5327  -15.7530 C   0  0  0  0  0  0  0  0  0  0  0  0
  -13.2273   45.3034  -16.3756 C   0  0  0  0  0  0  0  0  0  0  0  0
  -14.1822   44.3247  -15.7589 C   0  0  0  0  0  0  0  0  0  0  0  0
  -13.7918   43.5752  -14.5196 C   0  0  0  0  0  0  0  0  0  0  0  0
  -12.4465   43.8045  -13.8971 C   0  0  0  0  0  0  0  0  0  0  0  0
  -11.4916   44.7832  -14.5138 C   0  0  0  0  0  0  0  0  0  0  0  0
  -10.1463   45.0124  -13.8911 O   0  0  0  0  0  0  0  0  0  0  0  0
  -12.0560   43.0550  -12.6577 Cl  0  0  0  0  0  0  0  0  0  0  0  0
  -10.8568   47.9178  -15.8530 C   0  0  0  0  0  0  0  0  0  0  0  0
  -10.9271   46.5114  -16.3697 O   0  0  0  0  0  0  0  0  0  0  0  0
  -19.7920   42.2083  -19.1206 C   0  0  0  0  0  0  0  0  0  0  0  0
  -19.9899   43.3760  -20.0411 C   0  0  0  0  0  0  0  0  0  0  0  0
  -21.1065   44.3463  -19.7925 C   0  0  0  0  0  0  0  0  0  0  0  0
  -22.0253   44.1488  -18.6234 C   0  0  0  0  0  0  0  0  0  0  0  0
  -21.8274   42.9811  -17.7028 C   0  0  0  0  0  0  0  0  0  0  0  0
  -20.7108   42.0109  -17.9514 C   0  0  0  0  0  0  0  0  0  0  0  0
  -22.7461   42.7837  -16.5336 Cl  0  0  0  0  0  0  0  0  0  0  0  0
  -23.1419   45.1190  -18.3747 O   0  0  0  0  0  0  0  0  0  0  0  0
  -21.3044   45.5139  -20.7131 O   0  0  0  0  0  0  0  0  0  0  0  0
  -21.5987   45.2824  -22.1656 C   0  0  0  0  0  0  0  0  0  0  0  0
  -13.7515   39.7562  -18.6212 C   0  0  0  0  0  0  0  0  0  0  0  0
  -12.3415   40.1300  -18.2720 C   0  0  0  0  0  0  0  0  0  0  0  0
  -11.1627   41.0439  -18.4305 C   0  0  0  0  0  0  0  0  0  0  0  0
  -11.0781   39.8637  -17.5086 C   0  0  0  0  0  0  0  0  0  0  0  0
 18 19  1  0  0  0
 19 10  1  0  0  0
 10 11  2  0  0  0
 11 12  1  0  0  0
 12 13  2  0  0  0
 13 14  1  0  0  0
 14 15  2  0  0  0
 15 16  1  0  0  0
 14 17  1  0  0  0
 12  1  1  0  0  0
  1  2  2  0  0  0
  2  3  1  0  0  0
  3  4  1  0  0  0
  4  5  1  0  0  0
  5  6  1  0  0  0
  6  7  2  0  0  0
  7 20  1  0  0  0
 20 21  2  0  0  0
 21 22  1  0  0  0
 22 23  2  0  0  0
 23 24  1  0  0  0
 24 25  2  0  0  0
 24 26  1  0  0  0
 23 27  1  0  0  0
 22 28  1  0  0  0
 28 29  1  0  0  0
  6  8  1  0  0  0
  8  9  2  0  0  0
  4 30  1  0  0  0
 30 31  1  0  0  0
 31 32  1  0  0  0
 32 33  1  0  0  0
 15 10  1  0  0  0
  8  2  1  0  0  0
 25 20  1  0  0  0
 33 31  1  0  0  0
M  END
> <minimizedAffinity>
-6.89235

$$$$



 28 30  0  0  0  0  0  0  0  0999 V2000
  -15.7697   44.1359  -17.0795 C   0  0  0  0  0  0  0  0  0  0  0  0
  -15.1056   43.6787  -15.8147 C   0  0  0  0  0  0  0  0  0  0  0  0
  -13.7268   44.2681  -15.7758 S   0  0  0  0  0  0  0  0  0  0  0  0
  -13.5387   45.0896  -17.0167 C   0  0  0  0  0  0  0  0  0  0  0  0
  -12.3048   45.8579  -17.3868 N   0  0  0  0  0  0  0  0  0  0  0  0
  -14.8013   45.0079  -17.8224 N   0  0  0  0  0  0  0  0  0  0  0  0
  -19.9357   43.0776  -18.4117 C   0  0  0  0  0  0  0  0  0  0  0  0
  -19.6805   44.3784  -17.7098 C   0  0  0  0  0  0  0  0  0  0  0  0
  -18.2918   44.7312  -17.2657 C   0  0  0  0  0  0  0  0  0  0  0  0
  -17.1584   43.7831  -17.5236 C   0  0  0  0  0  0  0  0  0  0  0  0
  -17.4136   42.4823  -18.2255 C   0  0  0  0  0  0  0  0  0  0  0  0
  -18.8023   42.1295  -18.6695 C   0  0  0  0  0  0  0  0  0  0  0  0
  -22.4853   43.5765  -18.4353 C   0  0  0  0  0  0  0  0  0  0  0  0
  -21.3244   42.7248  -18.8557 O   0  0  0  0  0  0  0  0  0  0  0  0
  -19.0575   40.8286  -19.3714 O   0  0  0  0  0  0  0  0  0  0  0  0
  -17.9122   39.9194  -19.7054 C   0  0  0  0  0  0  0  0  0  0  0  0
  -11.1127   45.8460  -16.4765 C   0  0  0  0  0  0  0  0  0  0  0  0
  -10.9444   46.9240  -15.4471 S   0  0  0  0  0  0  0  0  0  0  0  0
  -10.0889   44.7562  -16.5955 N   0  0  0  0  0  0  0  0  0  0  0  0
   -9.8127   43.8559  -15.4279 C   0  0  0  0  0  0  0  0  0  0  0  0
  -10.5603   44.0454  -14.1414 O   0  0  0  0  0  0  0  0  0  0  0  0
   -8.7890   42.7660  -15.5469 C   0  0  0  0  0  0  0  0  0  0  0  0
   -7.5897   42.7619  -14.6460 C   0  0  0  0  0  0  0  0  0  0  0  0
   -6.5659   41.6721  -14.7651 C   0  0  0  0  0  0  0  0  0  0  0  0
   -6.7415   40.5864  -15.7850 C   0  0  0  0  0  0  0  0  0  0  0  0
   -7.9408   40.5905  -16.6860 C   0  0  0  0  0  0  0  0  0  0  0  0
   -8.9646   41.6803  -16.5669 C   0  0  0  0  0  0  0  0  0  0  0  0
   -5.7177   39.4964  -15.9042 Br  0  0  0  0  0  0  0  0  0  0  0  0
 13 14  1  0  0  0
 14  7  1  0  0  0
  7  8  2  0  0  0
  8  9  1  0  0  0
  9 10  2  0  0  0
 10 11  1  0  0  0
 11 12  2  0  0  0
 12 15  1  0  0  0
 15 16  1  0  0  0
 10  1  1  0  0  0
  1  2  2  0  0  0
  2  3  1  0  0  0
  3  4  1  0  0  0
  4  5  2  0  0  0
  5 17  1  0  0  0
 17 18  2  0  0  0
 17 19  1  0  0  0
 19 20  1  0  0  0
 20 21  2  0  0  0
 20 22  1  0  0  0
 22 23  2  0  0  0
 23 24  1  0  0  0
 24 25  2  0  0  0
 25 26  1  0  0  0
 26 27  2  0  0  0
 25 28  1  0  0  0
  4  6  1  0  0  0
 12  7  1  0  0  0
  6  1  1  0  0  0
 27 22  1  0  0  0
M  END
> <minimizedAffinity>
-5.58858

$$$$



 30 32  0  0  0  0  0  0  0  0999 V2000
  -12.9721   43.8215  -14.4912 C   0  0  0  0  0  0  0  0  0  0  0  0
  -12.3508   43.0461  -13.3674 C   0  0  0  0  0  0  0  0  0  0  0  0
  -11.1303   43.5763  -12.6753 C   0  0  0  0  0  0  0  0  0  0  0  0
  -10.5309   44.8818  -13.1069 C   0  0  0  0  0  0  0  0  0  0  0  0
  -11.1520   45.6572  -14.2306 C   0  0  0  0  0  0  0  0  0  0  0  0
  -12.3727   45.1271  -14.9229 C   0  0  0  0  0  0  0  0  0  0  0  0
  -14.4250   43.5973  -16.6334 N   0  0  0  0  0  0  0  0  0  0  0  0
  -14.1926   43.2914  -15.1834 C   0  0  0  0  0  0  0  0  0  0  0  0
  -15.1809   42.4552  -14.4256 O   0  0  0  0  0  0  0  0  0  0  0  0
  -19.3793   44.1738  -18.0903 C   0  0  0  0  0  0  0  0  0  0  0  0
  -18.1227   43.3554  -18.0540 C   0  0  0  0  0  0  0  0  0  0  0  0
  -18.0868   42.0068  -18.7097 C   0  0  0  0  0  0  0  0  0  0  0  0
  -16.8303   41.1884  -18.6734 C   0  0  0  0  0  0  0  0  0  0  0  0
  -15.6097   41.7185  -17.9813 C   0  0  0  0  0  0  0  0  0  0  0  0
  -15.6456   43.0671  -17.3255 C   0  0  0  0  0  0  0  0  0  0  0  0
  -16.9021   43.8855  -17.3619 C   0  0  0  0  0  0  0  0  0  0  0  0
  -16.9380   45.2341  -16.7061 C   0  0  0  0  0  0  0  0  0  0  0  0
  -10.5526   46.9628  -14.6622 S   0  0  0  0  0  0  0  0  0  0  0  0
  -11.5005   47.0140  -15.8237 O   0  0  0  0  0  0  0  0  0  0  0  0
   -9.6048   46.9116  -13.5008 O   0  0  0  0  0  0  0  0  0  0  0  0
   -9.9533   48.2683  -15.0938 N   0  0  0  0  0  0  0  0  0  0  0  0
  -10.7143   49.5454  -14.8942 C   0  0  0  0  0  0  0  0  0  0  0  0
  -10.9071   50.4909  -16.0427 C   0  0  0  0  0  0  0  0  0  0  0  0
  -11.6682   51.7680  -15.8431 C   0  0  0  0  0  0  0  0  0  0  0  0
  -12.2365   52.0996  -14.4951 C   0  0  0  0  0  0  0  0  0  0  0  0
  -12.0437   51.1542  -13.3466 C   0  0  0  0  0  0  0  0  0  0  0  0
  -11.2826   49.8770  -13.5463 C   0  0  0  0  0  0  0  0  0  0  0  0
  -12.6119   51.4857  -11.9987 Br  0  0  0  0  0  0  0  0  0  0  0  0
  -12.9975   53.3767  -14.2955 O   0  0  0  0  0  0  0  0  0  0  0  0
  -14.3688   53.5323  -14.8833 C   0  0  0  0  0  0  0  0  0  0  0  0
 10 11  1  0  0  0
 11 12  2  0  0  0
 12 13  1  0  0  0
 13 14  2  0  0  0
 14 15  1  0  0  0
 15 16  2  0  0  0
 16 17  1  0  0  0
 15  7  1  0  0  0
  7  8  1  0  0  0
  8  9  2  0  0  0
  8  1  1  0  0  0
  1  2  2  0  0  0
  2  3  1  0  0  0
  3  4  2  0  0  0
  4  5  1  0  0  0
  5  6  2  0  0  0
  5 18  1  0  0  0
 18 19  2  0  0  0
 18 20  2  0  0  0
 18 21  1  0  0  0
 21 22  1  0  0  0
 22 23  2  0  0  0
 23 24  1  0  0  0
 24 25  2  0  0  0
 25 26  1  0  0  0
 26 27  2  0  0  0
 26 28  1  0  0  0
 25 29  1  0  0  0
 29 30  1  0  0  0
 16 11  1  0  0  0
  6  1  1  0  0  0
 27 22  1  0  0  0
M  END
> <minimizedAffinity>
-6.71424

$$$$



 33 37  0  0  0  0  0  0  0  0999 V2000
   -9.5232   48.1672  -15.1834 N   0  0  0  0  0  0  0  0  0  0  0  0
  -10.5063   49.2632  -14.8963 C   0  0  0  0  0  0  0  0  0  0  0  0
  -11.2563   49.9118  -16.0220 O   0  0  0  0  0  0  0  0  0  0  0  0
  -10.7393   49.7107  -13.4837 C   0  0  0  0  0  0  0  0  0  0  0  0
  -11.6388   50.7586  -12.8983 C   0  0  0  0  0  0  0  0  0  0  0  0
  -11.4447   50.7577  -11.4109 C   0  0  0  0  0  0  0  0  0  0  0  0
  -10.4252   49.7092  -11.0771 S   0  0  0  0  0  0  0  0  0  0  0  0
   -9.9893   49.0621  -12.3582 C   0  0  0  0  0  0  0  0  0  0  0  0
   -9.0062   47.9661  -12.6453 N   0  0  0  0  0  0  0  0  0  0  0  0
   -8.7732   47.5187  -14.0579 C   0  0  0  0  0  0  0  0  0  0  0  0
  -12.2213   51.7117  -10.5526 C   0  0  0  0  0  0  0  0  0  0  0  0
  -13.1921   52.6666  -11.1817 C   0  0  0  0  0  0  0  0  0  0  0  0
  -13.3862   52.6675  -12.6691 C   0  0  0  0  0  0  0  0  0  0  0  0
  -12.6095   51.7135  -13.5274 C   0  0  0  0  0  0  0  0  0  0  0  0
  -13.9687   53.6207  -10.3234 C   0  0  0  0  0  0  0  0  0  0  0  0
  -10.4043   47.0863  -17.3756 C   0  0  0  0  0  0  0  0  0  0  0  0
   -9.2902   47.7198  -16.5961 C   0  0  0  0  0  0  0  0  0  0  0  0
   -7.7902   46.4227  -14.3450 S   0  0  0  0  0  0  0  0  0  0  0  0
   -8.1699   44.9920  -14.1023 C   0  0  0  0  0  0  0  0  0  0  0  0
   -9.6112   44.6196  -13.9175 C   0  0  0  0  0  0  0  0  0  0  0  0
  -10.2447   44.1537  -12.6401 C   0  0  0  0  0  0  0  0  0  0  0  0
  -11.6970   43.8939  -12.9108 S   0  0  0  0  0  0  0  0  0  0  0  0
  -11.9611   44.1991  -14.3555 C   0  0  0  0  0  0  0  0  0  0  0  0
  -10.6720   44.6476  -14.9777 N   0  0  0  0  0  0  0  0  0  0  0  0
  -13.2823   44.0773  -15.0552 C   0  0  0  0  0  0  0  0  0  0  0  0
  -14.3148   43.1159  -14.5457 C   0  0  0  0  0  0  0  0  0  0  0  0
  -15.6360   42.9940  -15.2454 C   0  0  0  0  0  0  0  0  0  0  0  0
  -15.9247   43.8335  -16.4545 C   0  0  0  0  0  0  0  0  0  0  0  0
  -14.8921   44.7949  -16.9639 C   0  0  0  0  0  0  0  0  0  0  0  0
  -13.5709   44.9168  -16.2643 C   0  0  0  0  0  0  0  0  0  0  0  0
  -17.2459   43.7117  -17.1541 C   0  0  0  0  0  0  0  0  0  0  0  0
  -17.6713   42.3931  -17.7291 O   0  0  0  0  0  0  0  0  0  0  0  0
  -18.1417   44.9082  -17.2789 N   0  0  0  0  0  0  0  0  0  0  0  0
 16 17  1  0  0  0
 17  1  1  0  0  0
  1  2  1  0  0  0
  2  3  2  0  0  0
  2  4  1  0  0  0
  4  5  1  0  0  0
  5  6  2  0  0  0
  6  7  1  0  0  0
  7  8  1  0  0  0
  8  9  1  0  0  0
  9 10  2  0  0  0
 10 18  1  0  0  0
 18 19  1  0  0  0
 19 20  1  0  0  0
 20 21  2  0  0  0
 21 22  1  0  0  0
 22 23  1  0  0  0
 23 24  2  0  0  0
 23 25  1  0  0  0
 25 26  2  0  0  0
 26 27  1  0  0  0
 27 28  2  0  0  0
 28 29  1  0  0  0
 29 30  2  0  0  0
 28 31  1  0  0  0
 31 32  2  0  0  0
 31 33  1  0  0  0
  6 11  1  0  0  0
 11 12  1  0  0  0
 12 13  1  0  0  0
 13 14  1  0  0  0
 12 15  1  0  0  0
 10  1  1  0  0  0
  8  4  2  0  0  0
 14  5  1  0  0  0
 24 20  1  0  0  0
 30 25  1  0  0  0
M  END
> <minimizedAffinity>
-6.72291

$$$$



 32 35  0  0  0  0  0  0  0  0999 V2000
  -15.3716   43.4772  -16.4062 C   0  0  0  0  0  0  0  0  0  0  0  0
  -14.9795   42.9914  -15.0424 C   0  0  0  0  0  0  0  0  0  0  0  0
  -13.7048   43.4705  -14.4134 C   0  0  0  0  0  0  0  0  0  0  0  0
  -12.8221   44.4354  -15.1483 C   0  0  0  0  0  0  0  0  0  0  0  0
  -13.2143   44.9211  -16.5122 C   0  0  0  0  0  0  0  0  0  0  0  0
  -14.4890   44.4421  -17.1412 C   0  0  0  0  0  0  0  0  0  0  0  0
  -17.7776   43.9569  -17.2613 C   0  0  0  0  0  0  0  0  0  0  0  0
  -17.6342   45.3946  -16.8583 O   0  0  0  0  0  0  0  0  0  0  0  0
  -16.6464   42.9982  -17.0353 N   0  0  0  0  0  0  0  0  0  0  0  0
  -20.6736   42.1045  -19.0633 C   0  0  0  0  0  0  0  0  0  0  0  0
  -21.3541   43.3767  -18.6531 C   0  0  0  0  0  0  0  0  0  0  0  0
  -20.3522   44.2255  -17.9282 C   0  0  0  0  0  0  0  0  0  0  0  0
  -19.0523   43.4777  -17.8903 C   0  0  0  0  0  0  0  0  0  0  0  0
  -19.2510   42.1669  -18.5919 S   0  0  0  0  0  0  0  0  0  0  0  0
  -22.6903   41.1155  -20.3691 C   0  0  0  0  0  0  0  0  0  0  0  0
  -23.3215   39.9801  -21.1191 C   0  0  0  0  0  0  0  0  0  0  0  0
  -22.5672   38.6982  -21.3133 C   0  0  0  0  0  0  0  0  0  0  0  0
  -21.1817   38.5517  -20.7574 C   0  0  0  0  0  0  0  0  0  0  0  0
  -20.5505   39.6871  -20.0074 C   0  0  0  0  0  0  0  0  0  0  0  0
  -21.3048   40.9691  -19.8133 C   0  0  0  0  0  0  0  0  0  0  0  0
  -23.1983   37.5628  -22.0632 Cl  0  0  0  0  0  0  0  0  0  0  0  0
  -11.5475   44.9144  -14.5193 S   0  0  0  0  0  0  0  0  0  0  0  0
  -11.6906   46.2278  -15.2295 O   0  0  0  0  0  0  0  0  0  0  0  0
  -11.4043   43.6010  -13.8092 O   0  0  0  0  0  0  0  0  0  0  0  0
  -10.2728   45.3934  -13.8903 N   0  0  0  0  0  0  0  0  0  0  0  0
   -8.9586   45.1277  -14.5629 C   0  0  0  0  0  0  0  0  0  0  0  0
   -7.7458   45.6491  -13.8504 C   0  0  0  0  0  0  0  0  0  0  0  0
   -6.3058   45.5473  -14.2581 C   0  0  0  0  0  0  0  0  0  0  0  0
   -5.7230   44.8991  -15.4787 C   0  0  0  0  0  0  0  0  0  0  0  0
   -6.4361   44.1925  -16.5933 C   0  0  0  0  0  0  0  0  0  0  0  0
   -7.9082   43.9597  -16.7624 C   0  0  0  0  0  0  0  0  0  0  0  0
   -9.0308   44.3760  -15.8588 N   0  0  0  0  0  0  0  0  0  0  0  0
 15 16  2  0  0  0
 16 17  1  0  0  0
 17 18  2  0  0  0
 18 19  1  0  0  0
 19 20  2  0  0  0
 20 10  1  0  0  0
 10 11  2  0  0  0
 11 12  1  0  0  0
 12 13  2  0  0  0
 13 14  1  0  0  0
 13  7  1  0  0  0
  7  8  2  0  0  0
  7  9  1  0  0  0
  9  1  1  0  0  0
  1  2  2  0  0  0
  2  3  1  0  0  0
  3  4  2  0  0  0
  4  5  1  0  0  0
  5  6  2  0  0  0
  4 22  1  0  0  0
 22 23  2  0  0  0
 22 24  2  0  0  0
 22 25  1  0  0  0
 25 26  2  0  0  0
 26 27  1  0  0  0
 27 28  1  0  0  0
 28 29  1  0  0  0
 29 30  1  0  0  0
 30 31  1  0  0  0
 31 32  1  0  0  0
 17 21  1  0  0  0
 20 15  1  0  0  0
 14 10  1  0  0  0
  6  1  1  0  0  0
 32 26  1  0  0  0
M  END
> <minimizedAffinity>
-5.91329

$$$$



 35 39  0  0  0  0  0  0  0  0999 V2000
  -13.0178   47.7743  -22.2931 C   0  0  0  0  0  0  0  0  0  0  0  0
  -12.7014   47.2068  -20.9411 C   0  0  0  0  0  0  0  0  0  0  0  0
  -11.9280   46.8620  -19.7030 C   0  0  0  0  0  0  0  0  0  0  0  0
  -12.5803   46.0731  -18.6066 C   0  0  0  0  0  0  0  0  0  0  0  0
  -14.0060   45.6291  -18.7482 C   0  0  0  0  0  0  0  0  0  0  0  0
  -14.6583   44.8402  -17.6518 C   0  0  0  0  0  0  0  0  0  0  0  0
  -13.8849   44.4954  -16.4137 C   0  0  0  0  0  0  0  0  0  0  0  0
  -12.4591   44.9394  -16.2720 C   0  0  0  0  0  0  0  0  0  0  0  0
  -11.6857   44.5946  -15.0339 N   0  0  0  0  0  0  0  0  0  0  0  0
  -12.3380   43.8057  -13.9375 C   0  0  0  0  0  0  0  0  0  0  0  0
  -13.7638   43.3617  -14.0791 N   0  0  0  0  0  0  0  0  0  0  0  0
  -14.5372   43.7065  -15.3173 C   0  0  0  0  0  0  0  0  0  0  0  0
  -15.9630   43.2625  -15.4589 O   0  0  0  0  0  0  0  0  0  0  0  0
  -11.8068   45.7283  -17.3685 N   0  0  0  0  0  0  0  0  0  0  0  0
  -14.7794   45.9739  -19.9863 C   0  0  0  0  0  0  0  0  0  0  0  0
  -16.2052   45.5298  -20.1280 O   0  0  0  0  0  0  0  0  0  0  0  0
  -14.1271   46.7627  -21.0828 C   0  0  0  0  0  0  0  0  0  0  0  0
  -11.3855   47.8479  -21.2690 C   0  0  0  0  0  0  0  0  0  0  0  0
  -16.0840   44.3962  -17.7935 C   0  0  0  0  0  0  0  0  0  0  0  0
  -16.3984   43.0755  -18.4316 C   0  0  0  0  0  0  0  0  0  0  0  0
  -17.8241   42.6315  -18.5732 C   0  0  0  0  0  0  0  0  0  0  0  0
  -18.9355   43.5080  -18.0768 C   0  0  0  0  0  0  0  0  0  0  0  0
  -18.6212   44.8286  -17.4387 C   0  0  0  0  0  0  0  0  0  0  0  0
  -17.1954   45.2727  -17.2970 C   0  0  0  0  0  0  0  0  0  0  0  0
  -20.3613   43.0639  -18.2184 N   0  0  0  0  0  0  0  0  0  0  0  0
  -20.6770   41.7547  -18.8789 C   0  0  0  0  0  0  0  0  0  0  0  0
  -21.4714   43.9291  -17.6997 C   0  0  0  0  0  0  0  0  0  0  0  0
  -11.5646   43.4609  -12.6994 S   0  0  0  0  0  0  0  0  0  0  0  0
  -10.7045   44.4976  -12.0393 C   0  0  0  0  0  0  0  0  0  0  0  0
   -9.5159   45.0574  -12.7630 C   0  0  0  0  0  0  0  0  0  0  0  0
   -8.4021   44.1485  -13.1912 C   0  0  0  0  0  0  0  0  0  0  0  0
   -7.2134   44.7083  -13.9148 C   0  0  0  0  0  0  0  0  0  0  0  0
   -7.1385   46.1771  -14.2103 C   0  0  0  0  0  0  0  0  0  0  0  0
   -8.2523   47.0860  -13.7820 C   0  0  0  0  0  0  0  0  0  0  0  0
   -9.4410   46.5261  -13.0583 C   0  0  0  0  0  0  0  0  0  0  0  0
  1  2  1  0  0  0
  2  3  1  0  0  0
  3  4  1  0  0  0
  4  5  2  0  0  0
  5  6  1  0  0  0
  6  7  1  0  0  0
  7  8  2  0  0  0
  8  9  1  0  0  0
  9 10  1  0  0  0
 10 11  2  0  0  0
 11 12  1  0  0  0
 12 13  2  0  0  0
 10 28  1  0  0  0
 28 29  1  0  0  0
 29 30  1  0  0  0
 30 31  2  0  0  0
 31 32  1  0  0  0
 32 33  2  0  0  0
 33 34  1  0  0  0
 34 35  2  0  0  0
  8 14  1  0  0  0
  6 19  1  0  0  0
 19 20  2  0  0  0
 20 21  1  0  0  0
 21 22  2  0  0  0
 22 23  1  0  0  0
 23 24  2  0  0  0
 22 25  1  0  0  0
 25 26  1  0  0  0
 25 27  1  0  0  0
  5 15  1  0  0  0
 15 16  2  0  0  0
 15 17  1  0  0  0
  2 18  1  0  0  0
 17  2  1  0  0  0
 14  4  1  0  0  0
 12  7  1  0  0  0
 35 30  1  0  0  0
 24 19  1  0  0  0
M  END
> <minimizedAffinity>
-6.56627

$$$$



 36 39  0  0  0  0  0  0  0  0999 V2000
  -14.8022   44.2107  -19.2453 N   0  0  0  0  0  0  0  0  0  0  0  0
  -14.7694   44.0349  -17.7560 C   0  0  0  0  0  0  0  0  0  0  0  0
  -15.9512   43.7579  -16.8747 C   0  0  0  0  0  0  0  0  0  0  0  0
  -15.4612   43.6570  -15.4606 N   0  0  0  0  0  0  0  0  0  0  0  0
  -13.9766   43.8715  -15.4680 C   0  0  0  0  0  0  0  0  0  0  0  0
  -13.5491   44.1051  -16.8866 N   0  0  0  0  0  0  0  0  0  0  0  0
  -12.1038   44.3515  -17.2035 C   0  0  0  0  0  0  0  0  0  0  0  0
  -11.0861   44.3643  -16.1017 C   0  0  0  0  0  0  0  0  0  0  0  0
  -11.5136   44.1308  -14.6830 N   0  0  0  0  0  0  0  0  0  0  0  0
  -12.9589   43.8844  -14.3662 C   0  0  0  0  0  0  0  0  0  0  0  0
  -10.4958   44.1437  -13.5812 C   0  0  0  0  0  0  0  0  0  0  0  0
  -10.9234   43.9102  -12.1625 O   0  0  0  0  0  0  0  0  0  0  0  0
   -9.0506   44.3901  -13.8981 C   0  0  0  0  0  0  0  0  0  0  0  0
   -8.4902   45.7789  -13.8127 C   0  0  0  0  0  0  0  0  0  0  0  0
   -7.0449   46.0253  -14.1296 C   0  0  0  0  0  0  0  0  0  0  0  0
   -6.1600   44.8829  -14.5319 C   0  0  0  0  0  0  0  0  0  0  0  0
   -6.7203   43.4941  -14.6172 C   0  0  0  0  0  0  0  0  0  0  0  0
   -8.1656   43.2477  -14.3004 C   0  0  0  0  0  0  0  0  0  0  0  0
   -5.8354   42.3517  -15.0195 F   0  0  0  0  0  0  0  0  0  0  0  0
  -17.3732   43.6082  -17.3279 C   0  0  0  0  0  0  0  0  0  0  0  0
  -17.8407   42.3092  -17.9143 C   0  0  0  0  0  0  0  0  0  0  0  0
  -19.2628   42.1595  -18.3675 C   0  0  0  0  0  0  0  0  0  0  0  0
  -20.2173   43.3088  -18.2343 C   0  0  0  0  0  0  0  0  0  0  0  0
  -19.7498   44.6079  -17.6479 C   0  0  0  0  0  0  0  0  0  0  0  0
  -18.3278   44.7576  -17.1947 C   0  0  0  0  0  0  0  0  0  0  0  0
  -21.6394   43.1591  -18.6875 N   0  0  0  0  0  0  0  0  0  0  0  0
  -22.5296   44.3633  -18.7742 C   0  0  0  0  0  0  0  0  0  0  0  0
  -22.1712   41.8053  -19.0539 C   0  0  0  0  0  0  0  0  0  0  0  0
  -13.5331   44.4844  -19.9964 C   0  0  0  0  0  0  0  0  0  0  0  0
  -13.3140   43.0100  -20.1636 C   0  0  0  0  0  0  0  0  0  0  0  0
  -13.7521   45.9589  -19.8292 C   0  0  0  0  0  0  0  0  0  0  0  0
  -12.2639   44.7582  -20.7475 C   0  0  0  0  0  0  0  0  0  0  0  0
  -13.4206   44.9972  -22.5096 C   0  0  0  0  0  0  0  0  0  0  0  0
  -12.1266   44.3165  -22.1744 C   0  0  0  0  0  0  0  0  0  0  0  0
  -10.8326   43.6359  -21.8393 C   0  0  0  0  0  0  0  0  0  0  0  0
  -11.9894   43.8749  -23.6013 C   0  0  0  0  0  0  0  0  0  0  0  0
 33 34  1  0  0  0
 34 35  1  0  0  0
 34 36  1  0  0  0
 34 32  1  0  0  0
 32 29  1  0  0  0
 29 30  1  0  0  0
 29 31  1  0  0  0
 29  1  1  0  0  0
  1  2  2  0  0  0
  2  3  1  0  0  0
  3  4  1  0  0  0
  4  5  2  0  0  0
  5  6  1  0  0  0
  6  7  1  0  0  0
  7  8  1  0  0  0
  8  9  1  0  0  0
  9 10  1  0  0  0
  9 11  1  0  0  0
 11 12  2  0  0  0
 11 13  1  0  0  0
 13 14  2  0  0  0
 14 15  1  0  0  0
 15 16  2  0  0  0
 16 17  1  0  0  0
 17 18  2  0  0  0
 17 19  1  0  0  0
  3 20  1  0  0  0
 20 21  2  0  0  0
 21 22  1  0  0  0
 22 23  2  0  0  0
 23 24  1  0  0  0
 24 25  2  0  0  0
 23 26  1  0  0  0
 26 27  1  0  0  0
 26 28  1  0  0  0
  6  2  1  0  0  0
 10  5  1  0  0  0
 18 13  1  0  0  0
 25 20  1  0  0  0
M  CHG 1   1   1
M  CHG 1   4   1
M  END
> <minimizedAffinity>
-4.92821

$$$$



 35 39  0  0  0  0  0  0  0  0999 V2000
  -13.3460   44.5006  -15.7365 C   0  0  0  0  0  0  0  0  0  0  0  0
  -14.0012   43.4624  -14.8747 C   0  0  0  0  0  0  0  0  0  0  0  0
  -15.3929   42.9980  -15.1869 C   0  0  0  0  0  0  0  0  0  0  0  0
  -16.1295   43.5719  -16.3609 C   0  0  0  0  0  0  0  0  0  0  0  0
  -15.4742   44.6101  -17.2227 C   0  0  0  0  0  0  0  0  0  0  0  0
  -14.0824   45.0745  -16.9105 C   0  0  0  0  0  0  0  0  0  0  0  0
  -16.2107   45.1840  -18.3967 C   0  0  0  0  0  0  0  0  0  0  0  0
  -15.8253   46.2127  -19.4181 C   0  0  0  0  0  0  0  0  0  0  0  0
  -16.9788   46.3840  -20.3614 C   0  0  0  0  0  0  0  0  0  0  0  0
  -18.0772   45.4613  -19.9231 C   0  0  0  0  0  0  0  0  0  0  0  0
  -17.6025   44.7196  -18.7088 C   0  0  0  0  0  0  0  0  0  0  0  0
  -18.2577   43.6813  -17.8470 C   0  0  0  0  0  0  0  0  0  0  0  0
  -17.5211   43.1075  -16.6730 N   0  0  0  0  0  0  0  0  0  0  0  0
  -19.6494   43.2169  -18.1592 C   0  0  0  0  0  0  0  0  0  0  0  0
  -20.8248   44.0786  -17.8044 C   0  0  0  0  0  0  0  0  0  0  0  0
  -22.2166   43.6140  -18.1166 C   0  0  0  0  0  0  0  0  0  0  0  0
  -22.4328   42.2880  -18.7835 C   0  0  0  0  0  0  0  0  0  0  0  0
  -21.2573   41.4264  -19.1383 C   0  0  0  0  0  0  0  0  0  0  0  0
  -19.8657   41.8908  -18.8261 C   0  0  0  0  0  0  0  0  0  0  0  0
  -18.6901   41.0292  -19.1809 O   0  0  0  0  0  0  0  0  0  0  0  0
  -18.1793   41.0011  -20.5910 C   0  0  0  0  0  0  0  0  0  0  0  0
  -21.4736   40.1003  -19.8052 O   0  0  0  0  0  0  0  0  0  0  0  0
  -22.7890   39.7949  -20.4581 C   0  0  0  0  0  0  0  0  0  0  0  0
  -11.9543   44.9650  -15.4244 S   0  0  0  0  0  0  0  0  0  0  0  0
  -11.7602   45.3493  -16.8613 O   0  0  0  0  0  0  0  0  0  0  0  0
  -12.1483   44.5808  -13.9875 O   0  0  0  0  0  0  0  0  0  0  0  0
  -10.5625   45.4294  -15.1123 N   0  0  0  0  0  0  0  0  0  0  0  0
   -9.7174   50.3937  -11.8500 C   0  0  0  0  0  0  0  0  0  0  0  0
   -9.9287   49.1527  -12.6656 C   0  0  0  0  0  0  0  0  0  0  0  0
   -9.3713   47.8420  -12.1950 C   0  0  0  0  0  0  0  0  0  0  0  0
   -9.5826   46.6010  -13.0105 C   0  0  0  0  0  0  0  0  0  0  0  0
  -10.3512   46.6706  -14.2967 C   0  0  0  0  0  0  0  0  0  0  0  0
  -10.9086   47.9813  -14.7674 C   0  0  0  0  0  0  0  0  0  0  0  0
  -10.6973   49.2223  -13.9518 C   0  0  0  0  0  0  0  0  0  0  0  0
  -11.2547   50.5329  -14.4225 C   0  0  0  0  0  0  0  0  0  0  0  0
 28 29  1  0  0  0
 29 30  2  0  0  0
 30 31  1  0  0  0
 31 32  2  0  0  0
 32 33  1  0  0  0
 33 34  2  0  0  0
 34 35  1  0  0  0
 32 27  1  0  0  0
 27 24  1  0  0  0
 24 25  2  0  0  0
 24 26  2  0  0  0
 24  1  1  0  0  0
  1  2  2  0  0  0
  2  3  1  0  0  0
  3  4  2  0  0  0
  4  5  1  0  0  0
  5  6  2  0  0  0
  5  7  1  0  0  0
  7  8  1  0  0  0
  8  9  2  0  0  0
  9 10  1  0  0  0
 11 10  1  0  0  0
 11 12  1  0  0  0
 12 13  1  0  0  0
 12 14  1  0  0  0
 14 15  2  0  0  0
 15 16  1  0  0  0
 16 17  2  0  0  0
 17 18  1  0  0  0
 18 19  2  0  0  0
 19 20  1  0  0  0
 20 21  1  0  0  0
 18 22  1  0  0  0
 22 23  1  0  0  0
 34 29  1  0  0  0
  6  1  1  0  0  0
 13  4  1  0  0  0
 11  7  1  0  0  0
 19 14  1  0  0  0
M  END
> <minimizedAffinity>
-7.24901

$$$$



 28 30  0  0  0  0  0  0  0  0999 V2000
  -10.8858   45.4092  -14.4564 N   0  0  0  0  0  0  0  0  0  0  0  0
  -12.1879   44.6921  -14.6568 C   0  0  0  0  0  0  0  0  0  0  0  0
  -13.2351   45.0337  -15.6750 N   0  0  0  0  0  0  0  0  0  0  0  0
  -14.3659   44.0601  -15.5216 C   0  0  0  0  0  0  0  0  0  0  0  0
  -14.0175   43.1168  -14.4085 C   0  0  0  0  0  0  0  0  0  0  0  0
  -12.6715   43.5074  -13.8740 S   0  0  0  0  0  0  0  0  0  0  0  0
  -15.6240   44.0344  -16.3379 C   0  0  0  0  0  0  0  0  0  0  0  0
  -16.5313   45.2288  -16.3553 C   0  0  0  0  0  0  0  0  0  0  0  0
  -17.7895   45.2030  -17.1716 C   0  0  0  0  0  0  0  0  0  0  0  0
  -18.1404   43.9830  -17.9705 C   0  0  0  0  0  0  0  0  0  0  0  0
  -17.2331   42.7886  -17.9530 C   0  0  0  0  0  0  0  0  0  0  0  0
  -15.9749   42.8143  -17.1367 C   0  0  0  0  0  0  0  0  0  0  0  0
  -17.5839   41.5685  -18.7519 Br  0  0  0  0  0  0  0  0  0  0  0  0
  -19.3985   43.9572  -18.7868 O   0  0  0  0  0  0  0  0  0  0  0  0
  -20.7324   43.8701  -18.1063 C   0  0  0  0  0  0  0  0  0  0  0  0
  -10.5364   46.5847  -15.3202 C   0  0  0  0  0  0  0  0  0  0  0  0
   -9.5532   46.4253  -16.4417 S   0  0  0  0  0  0  0  0  0  0  0  0
  -10.6548   48.7938  -13.9579 C   0  0  0  0  0  0  0  0  0  0  0  0
   -9.5055   48.3333  -13.1111 O   0  0  0  0  0  0  0  0  0  0  0  0
  -11.1702   47.9196  -15.0624 N   0  0  0  0  0  0  0  0  0  0  0  0
  -12.3737   51.8248  -12.0582 C   0  0  0  0  0  0  0  0  0  0  0  0
  -12.5563   52.7984  -13.1846 C   0  0  0  0  0  0  0  0  0  0  0  0
  -12.1050   52.4371  -14.5687 C   0  0  0  0  0  0  0  0  0  0  0  0
  -11.4712   51.1023  -14.8265 C   0  0  0  0  0  0  0  0  0  0  0  0
  -11.2886   50.1287  -13.7002 C   0  0  0  0  0  0  0  0  0  0  0  0
  -11.7399   50.4900  -12.3160 C   0  0  0  0  0  0  0  0  0  0  0  0
  -14.0840   52.9774  -10.4783 C   0  0  0  0  0  0  0  0  0  0  0  0
  -12.8249   52.1860  -10.6741 O   0  0  0  0  0  0  0  0  0  0  0  0
 27 28  1  0  0  0
 28 21  1  0  0  0
 21 22  2  0  0  0
 22 23  1  0  0  0
 23 24  2  0  0  0
 24 25  1  0  0  0
 25 26  2  0  0  0
 25 18  1  0  0  0
 18 19  2  0  0  0
 18 20  1  0  0  0
 20 16  1  0  0  0
 16 17  2  0  0  0
 16  1  1  0  0  0
  1  2  2  0  0  0
  2  3  1  0  0  0
  3  4  1  0  0  0
  4  5  2  0  0  0
  5  6  1  0  0  0
  4  7  1  0  0  0
  7  8  2  0  0  0
  8  9  1  0  0  0
  9 10  2  0  0  0
 10 11  1  0  0  0
 11 12  2  0  0  0
 11 13  1  0  0  0
 10 14  1  0  0  0
 14 15  1  0  0  0
 26 21  1  0  0  0
  6  2  1  0  0  0
 12  7  1  0  0  0
M  END
> <minimizedAffinity>
-6.26019

$$$$



 30 33  0  0  0  0  0  0  0  0999 V2000
  -11.1525   45.3757  -15.0418 C   0  0  0  0  0  0  0  0  0  0  0  0
  -12.1539   44.4304  -14.4472 C   0  0  0  0  0  0  0  0  0  0  0  0
  -13.3593   44.0188  -15.2395 C   0  0  0  0  0  0  0  0  0  0  0  0
  -14.5094   44.9678  -15.4028 N   0  0  0  0  0  0  0  0  0  0  0  0
  -15.7147   44.5561  -16.1951 C   0  0  0  0  0  0  0  0  0  0  0  0
  -15.7699   43.1955  -16.8241 C   0  0  0  0  0  0  0  0  0  0  0  0
  -17.0804   43.0701  -17.5432 C   0  0  0  0  0  0  0  0  0  0  0  0
  -17.8351   44.3532  -17.3586 C   0  0  0  0  0  0  0  0  0  0  0  0
  -16.9910   45.2716  -16.5254 S   0  0  0  0  0  0  0  0  0  0  0  0
  -19.1933   44.5195  -17.9730 C   0  0  0  0  0  0  0  0  0  0  0  0
  -19.7968   43.4027  -18.7721 C   0  0  0  0  0  0  0  0  0  0  0  0
  -19.0421   42.1196  -18.9567 C   0  0  0  0  0  0  0  0  0  0  0  0
  -17.6839   41.9533  -18.3423 C   0  0  0  0  0  0  0  0  0  0  0  0
  -21.1551   43.5690  -19.3865 C   0  0  0  0  0  0  0  0  0  0  0  0
  -14.6198   42.2466  -16.6609 C   0  0  0  0  0  0  0  0  0  0  0  0
  -14.6750   40.8859  -17.2899 O   0  0  0  0  0  0  0  0  0  0  0  0
  -13.4145   42.6582  -15.8686 N   0  0  0  0  0  0  0  0  0  0  0  0
  -12.1015   45.5487  -18.8915 C   0  0  0  0  0  0  0  0  0  0  0  0
  -11.8976   45.0150  -17.5045 C   0  0  0  0  0  0  0  0  0  0  0  0
  -11.3565   45.9094  -16.4287 C   0  0  0  0  0  0  0  0  0  0  0  0
  -11.0193   47.3376  -16.7400 C   0  0  0  0  0  0  0  0  0  0  0  0
  -11.2233   47.8712  -18.1269 C   0  0  0  0  0  0  0  0  0  0  0  0
  -11.7644   46.9768  -19.2027 C   0  0  0  0  0  0  0  0  0  0  0  0
  -11.9683   47.5105  -20.5895 O   0  0  0  0  0  0  0  0  0  0  0  0
  -10.8861   49.2993  -18.4381 Br  0  0  0  0  0  0  0  0  0  0  0  0
  -12.6425   44.6543  -19.9672 O   0  0  0  0  0  0  0  0  0  0  0  0
  -15.1381   45.3768  -19.9538 C   0  0  0  0  0  0  0  0  0  0  0  0
  -14.0989   44.2954  -19.9821 C   0  0  0  0  0  0  0  0  0  0  0  0
  -11.9501   43.8968  -13.0603 C   0  0  0  0  0  0  0  0  0  0  0  0
  -11.7462   43.3631  -11.6733 N   0  0  0  0  0  0  0  0  0  0  0  0
 27 28  1  0  0  0
 28 26  1  0  0  0
 26 18  1  0  0  0
 18 19  2  0  0  0
 19 20  1  0  0  0
 20 21  2  0  0  0
 21 22  1  0  0  0
 22 23  2  0  0  0
 23 24  1  0  0  0
 22 25  1  0  0  0
 20  1  1  0  0  0
  1  2  2  0  0  0
  2 29  1  0  0  0
 29 30  3  0  0  0
  2  3  1  0  0  0
  3  4  1  0  0  0
  4  5  1  0  0  0
  5  6  2  0  0  0
  6  7  1  0  0  0
  7  8  2  0  0  0
  8  9  1  0  0  0
  8 10  1  0  0  0
 10 11  1  0  0  0
 11 12  1  0  0  0
 12 13  1  0  0  0
 11 14  1  0  0  0
  6 15  1  0  0  0
 15 16  2  0  0  0
 15 17  1  0  0  0
 23 18  1  0  0  0
 17  3  2  0  0  0
  9  5  1  0  0  0
 13  7  1  0  0  0
M  END
> <minimizedAffinity>
-6.08032

$$$$



 32 35  0  0  0  0  0  0  0  0999 V2000
  -11.6382   42.9893  -15.9935 C   0  0  0  0  0  0  0  0  0  0  0  0
  -10.2694   42.3762  -16.0058 C   0  0  0  0  0  0  0  0  0  0  0  0
   -9.9966   41.1673  -16.8509 C   0  0  0  0  0  0  0  0  0  0  0  0
  -11.0927   40.5715  -17.6836 C   0  0  0  0  0  0  0  0  0  0  0  0
  -12.4617   41.1847  -17.6713 C   0  0  0  0  0  0  0  0  0  0  0  0
  -12.7345   42.3936  -16.8263 C   0  0  0  0  0  0  0  0  0  0  0  0
  -14.1033   43.0067  -16.8139 O   0  0  0  0  0  0  0  0  0  0  0  0
  -15.1994   42.4109  -17.6467 C   0  0  0  0  0  0  0  0  0  0  0  0
  -14.9267   41.2020  -18.4918 C   0  0  0  0  0  0  0  0  0  0  0  0
  -13.5578   40.5889  -18.5041 C   0  0  0  0  0  0  0  0  0  0  0  0
  -13.2851   39.3800  -19.3492 O   0  0  0  0  0  0  0  0  0  0  0  0
  -10.8200   39.3626  -18.5287 O   0  0  0  0  0  0  0  0  0  0  0  0
   -9.1732   42.9719  -15.1730 O   0  0  0  0  0  0  0  0  0  0  0  0
  -16.5684   43.0241  -17.6344 C   0  0  0  0  0  0  0  0  0  0  0  0
  -17.7390   42.2560  -18.1726 C   0  0  0  0  0  0  0  0  0  0  0  0
  -19.1079   42.8691  -18.1604 C   0  0  0  0  0  0  0  0  0  0  0  0
  -19.3063   44.2503  -17.6099 C   0  0  0  0  0  0  0  0  0  0  0  0
  -18.1356   45.0184  -17.0717 C   0  0  0  0  0  0  0  0  0  0  0  0
  -16.7667   44.4053  -17.0840 C   0  0  0  0  0  0  0  0  0  0  0  0
  -11.9110   44.1982  -15.1484 C   0  0  0  0  0  0  0  0  0  0  0  0
  -11.5954   45.5673  -15.6738 C   0  0  0  0  0  0  0  0  0  0  0  0
  -11.7075   45.8512  -17.1424 C   0  0  0  0  0  0  0  0  0  0  0  0
  -11.3919   47.2202  -17.6679 C   0  0  0  0  0  0  0  0  0  0  0  0
  -10.9643   48.3054  -16.7247 C   0  0  0  0  0  0  0  0  0  0  0  0
  -10.8522   48.0215  -15.2561 C   0  0  0  0  0  0  0  0  0  0  0  0
  -11.1678   46.6524  -14.7307 C   0  0  0  0  0  0  0  0  0  0  0  0
  -10.6487   49.6745  -17.2502 Br  0  0  0  0  0  0  0  0  0  0  0  0
  -12.4993   44.0381  -13.7779 C   0  0  0  0  0  0  0  0  0  0  0  0
  -11.6013   43.9865  -12.5775 C   0  0  0  0  0  0  0  0  0  0  0  0
  -12.1923   43.9639  -11.1991 O   0  0  0  0  0  0  0  0  0  0  0  0
   -9.2740   45.0939  -12.2495 C   0  0  0  0  0  0  0  0  0  0  0  0
  -10.1121   43.9575  -12.7557 O   0  0  0  0  0  0  0  0  0  0  0  0
 31 32  1  0  0  0
 32 29  1  0  0  0
 29 30  2  0  0  0
 29 28  1  0  0  0
 20 28  1  0  0  0
 20 21  1  0  0  0
 21 22  2  0  0  0
 22 23  1  0  0  0
 23 24  2  0  0  0
 24 25  1  0  0  0
 25 26  2  0  0  0
 24 27  1  0  0  0
 20  1  1  0  0  0
  1  2  2  0  0  0
  2  3  1  0  0  0
  3  4  2  0  0  0
  4  5  1  0  0  0
  5  6  2  0  0  0
  6  7  1  0  0  0
  7  8  1  0  0  0
  8  9  2  0  0  0
  9 10  1  0  0  0
 10 11  2  0  0  0
  8 14  1  0  0  0
 14 15  2  0  0  0
 15 16  1  0  0  0
 16 17  2  0  0  0
 17 18  1  0  0  0
 18 19  2  0  0  0
  4 12  1  0  0  0
  2 13  1  0  0  0
 26 21  1  0  0  0
  6  1  1  0  0  0
 10  5  1  0  0  0
 19 14  1  0  0  0
M  END
> <minimizedAffinity>
-6.90238

$$$$



 37 41  0  0  0  0  0  0  0  0999 V2000
  -12.5973   44.2392  -15.3765 C   0  0  0  0  0  0  0  0  0  0  0  0
  -12.1337   42.9853  -16.0568 C   0  0  0  0  0  0  0  0  0  0  0  0
  -13.0931   42.1826  -16.8846 C   0  0  0  0  0  0  0  0  0  0  0  0
  -14.5160   42.6338  -17.0321 C   0  0  0  0  0  0  0  0  0  0  0  0
  -14.9795   43.8877  -16.3518 C   0  0  0  0  0  0  0  0  0  0  0  0
  -14.0202   44.6904  -15.5240 C   0  0  0  0  0  0  0  0  0  0  0  0
  -16.4309   44.0822  -16.6772 S   0  0  0  0  0  0  0  0  0  0  0  0
  -16.2949   45.3102  -15.8266 O   0  0  0  0  0  0  0  0  0  0  0  0
  -17.8538   44.5334  -16.8247 O   0  0  0  0  0  0  0  0  0  0  0  0
  -16.8643   42.9484  -17.5586 C   0  0  0  0  0  0  0  0  0  0  0  0
  -15.6809   42.0533  -17.7780 C   0  0  0  0  0  0  0  0  0  0  0  0
  -15.8168   40.8253  -18.6285 C   0  0  0  0  0  0  0  0  0  0  0  0
  -17.1362   40.4924  -19.2596 C   0  0  0  0  0  0  0  0  0  0  0  0
  -18.3196   41.3875  -19.0402 C   0  0  0  0  0  0  0  0  0  0  0  0
  -18.1837   42.6156  -18.1897 C   0  0  0  0  0  0  0  0  0  0  0  0
  -11.1193   46.3526  -15.0616 C   0  0  0  0  0  0  0  0  0  0  0  0
  -11.5599   46.8605  -16.4024 O   0  0  0  0  0  0  0  0  0  0  0  0
  -11.6379   45.0419  -14.5487 N   0  0  0  0  0  0  0  0  0  0  0  0
  -10.5073   48.5583  -13.8327 C   0  0  0  0  0  0  0  0  0  0  0  0
  -10.1599   47.1553  -14.2337 C   0  0  0  0  0  0  0  0  0  0  0  0
   -7.6292   50.9663  -11.3491 C   0  0  0  0  0  0  0  0  0  0  0  0
   -8.5590   49.9932  -10.6870 C   0  0  0  0  0  0  0  0  0  0  0  0
   -9.5183   49.1905  -11.5148 C   0  0  0  0  0  0  0  0  0  0  0  0
   -9.5479   49.3610  -13.0049 C   0  0  0  0  0  0  0  0  0  0  0  0
   -8.6181   50.3341  -13.6670 C   0  0  0  0  0  0  0  0  0  0  0  0
   -7.6587   51.1368  -12.8391 C   0  0  0  0  0  0  0  0  0  0  0  0
  -19.6391   41.0547  -19.6714 N   0  0  0  0  0  0  0  0  0  0  0  0
  -20.1171   41.8298  -20.8633 C   0  0  0  0  0  0  0  0  0  0  0  0
  -19.2757   42.9377  -21.4241 O   0  0  0  0  0  0  0  0  0  0  0  0
  -21.4365   41.4969  -21.4944 C   0  0  0  0  0  0  0  0  0  0  0  0
  -22.7127   41.7849  -20.7607 C   0  0  0  0  0  0  0  0  0  0  0  0
  -22.6695   42.4057  -19.3959 C   0  0  0  0  0  0  0  0  0  0  0  0
  -22.8576   41.5518  -18.1772 C   0  0  0  0  0  0  0  0  0  0  0  0
  -22.8144   42.1726  -16.8124 C   0  0  0  0  0  0  0  0  0  0  0  0
  -22.5830   43.6474  -16.6664 C   0  0  0  0  0  0  0  0  0  0  0  0
  -22.3949   44.5014  -17.8851 C   0  0  0  0  0  0  0  0  0  0  0  0
  -22.4381   43.8806  -19.2498 C   0  0  0  0  0  0  0  0  0  0  0  0
 21 22  2  0  0  0
 22 23  1  0  0  0
 23 24  2  0  0  0
 24 25  1  0  0  0
 25 26  2  0  0  0
 24 19  1  0  0  0
 19 20  2  0  0  0
 20 16  1  0  0  0
 16 17  2  0  0  0
 16 18  1  0  0  0
 18  1  1  0  0  0
  1  2  2  0  0  0
  2  3  1  0  0  0
  3  4  2  0  0  0
  4  5  1  0  0  0
  5  6  2  0  0  0
  5  7  1  0  0  0
  7  8  2  0  0  0
  7  9  2  0  0  0
  7 10  1  0  0  0
 10 11  2  0  0  0
 11 12  1  0  0  0
 12 13  2  0  0  0
 13 14  1  0  0  0
 14 15  2  0  0  0
 14 27  1  0  0  0
 27 28  1  0  0  0
 28 29  2  0  0  0
 28 30  1  0  0  0
 30 31  2  0  0  0
 31 32  1  0  0  0
 32 33  2  0  0  0
 33 34  1  0  0  0
 34 35  2  0  0  0
 35 36  1  0  0  0
 36 37  2  0  0  0
 26 21  1  0  0  0
  6  1  1  0  0  0
  4 11  1  0  0  0
 15 10  1  0  0  0
 37 32  1  0  0  0
M  END
> <minimizedAffinity>
-7.19456

$$$$



 26 28  0  0  0  0  0  0  0  0999 V2000
  -16.3403   43.8545  -18.4207 N   0  0  0  0  0  0  0  0  0  0  0  0
  -15.6759   45.0487  -17.8023 C   0  0  0  0  0  0  0  0  0  0  0  0
  -16.4314   45.9095  -16.8337 O   0  0  0  0  0  0  0  0  0  0  0  0
  -23.3387   43.6068  -18.7840 C   0  0  0  0  0  0  0  0  0  0  0  0
  -22.6018   44.3678  -19.8460 C   0  0  0  0  0  0  0  0  0  0  0  0
  -21.1044   44.4480  -19.8089 C   0  0  0  0  0  0  0  0  0  0  0  0
  -20.3439   43.7671  -18.7098 C   0  0  0  0  0  0  0  0  0  0  0  0
  -21.0809   43.0061  -17.6479 C   0  0  0  0  0  0  0  0  0  0  0  0
  -22.5783   42.9259  -17.6850 C   0  0  0  0  0  0  0  0  0  0  0  0
  -23.3152   42.1649  -16.6229 Br  0  0  0  0  0  0  0  0  0  0  0  0
  -18.8821   44.0185  -18.9329 C   0  0  0  0  0  0  0  0  0  0  0  0
  -17.7602   43.5210  -18.0705 N   0  0  0  0  0  0  0  0  0  0  0  0
  -18.7391   44.8549  -20.1699 C   0  0  0  0  0  0  0  0  0  0  0  0
  -17.4491   45.3405  -20.7616 O   0  0  0  0  0  0  0  0  0  0  0  0
  -20.1126   45.1203  -20.7113 N   0  0  0  0  0  0  0  0  0  0  0  0
  -14.2560   45.3821  -18.1526 C   0  0  0  0  0  0  0  0  0  0  0  0
  -13.1431   44.4767  -17.7148 O   0  0  0  0  0  0  0  0  0  0  0  0
  -12.7858   44.3762  -16.2614 C   0  0  0  0  0  0  0  0  0  0  0  0
  -13.4162   43.3177  -15.4057 C   0  0  0  0  0  0  0  0  0  0  0  0
  -13.0590   43.2171  -13.9523 C   0  0  0  0  0  0  0  0  0  0  0  0
  -12.0713   44.1749  -13.3547 C   0  0  0  0  0  0  0  0  0  0  0  0
  -11.4409   45.2333  -14.2104 C   0  0  0  0  0  0  0  0  0  0  0  0
  -11.7981   45.3339  -15.6638 C   0  0  0  0  0  0  0  0  0  0  0  0
  -11.1677   46.3923  -16.5196 Cl  0  0  0  0  0  0  0  0  0  0  0  0
  -11.7140   44.0743  -11.9013 Cl  0  0  0  0  0  0  0  0  0  0  0  0
  -14.4039   42.3599  -16.0032 Cl  0  0  0  0  0  0  0  0  0  0  0  0
  4  5  2  0  0  0
  5  6  1  0  0  0
  6  7  2  0  0  0
  7  8  1  0  0  0
  8  9  2  0  0  0
  9 10  1  0  0  0
  7 11  1  0  0  0
 11 12  2  0  0  0
 12  1  1  0  0  0
  1  2  1  0  0  0
  2  3  2  0  0  0
  2 16  1  0  0  0
 16 17  1  0  0  0
 17 18  1  0  0  0
 18 19  2  0  0  0
 19 20  1  0  0  0
 20 21  2  0  0  0
 21 22  1  0  0  0
 22 23  2  0  0  0
 23 24  1  0  0  0
 21 25  1  0  0  0
 19 26  1  0  0  0
 11 13  1  0  0  0
 13 14  2  0  0  0
 13 15  1  0  0  0
  9  4  1  0  0  0
 15  6  1  0  0  0
 23 18  1  0  0  0
M  END
> <minimizedAffinity>
-5.53081

$$$$



 28 30  0  0  0  0  0  0  0  0999 V2000
  -17.0898   44.8263  -16.2337 C   0  0  0  0  0  0  0  0  0  0  0  0
  -15.6321   44.9657  -16.5585 C   0  0  0  0  0  0  0  0  0  0  0  0
  -15.1964   45.1699  -17.9792 C   0  0  0  0  0  0  0  0  0  0  0  0
  -16.2185   45.2347  -19.0752 C   0  0  0  0  0  0  0  0  0  0  0  0
  -17.6762   45.0953  -18.7504 C   0  0  0  0  0  0  0  0  0  0  0  0
  -18.1119   44.8911  -17.3296 C   0  0  0  0  0  0  0  0  0  0  0  0
  -18.6984   45.1601  -19.8464 N   0  0  0  0  0  0  0  0  0  0  0  0
  -18.9798   43.9468  -20.6821 C   0  0  0  0  0  0  0  0  0  0  0  0
  -18.2392   42.6686  -20.4220 O   0  0  0  0  0  0  0  0  0  0  0  0
  -20.0020   44.0116  -21.7781 C   0  0  0  0  0  0  0  0  0  0  0  0
  -21.4637   43.9720  -21.4437 C   0  0  0  0  0  0  0  0  0  0  0  0
  -21.9033   43.8676  -20.0134 C   0  0  0  0  0  0  0  0  0  0  0  0
  -22.1103   42.5960  -19.2451 O   0  0  0  0  0  0  0  0  0  0  0  0
  -22.5480   42.9590  -17.8571 C   0  0  0  0  0  0  0  0  0  0  0  0
  -22.6116   44.4550  -17.7675 C   0  0  0  0  0  0  0  0  0  0  0  0
  -22.2131   45.0165  -19.1001 C   0  0  0  0  0  0  0  0  0  0  0  0
  -22.8664   41.9953  -16.7526 Br  0  0  0  0  0  0  0  0  0  0  0  0
  -14.6099   44.9009  -15.4625 N   0  0  0  0  0  0  0  0  0  0  0  0
  -13.8642   43.6248  -15.2069 C   0  0  0  0  0  0  0  0  0  0  0  0
  -14.1406   42.4134  -16.0473 O   0  0  0  0  0  0  0  0  0  0  0  0
  -12.8421   43.5600  -14.1110 C   0  0  0  0  0  0  0  0  0  0  0  0
  -11.6776   44.5054  -14.1146 C   0  0  0  0  0  0  0  0  0  0  0  0
  -11.5352   45.5157  -15.2141 C   0  0  0  0  0  0  0  0  0  0  0  0
  -11.7688   45.2679  -16.6750 O   0  0  0  0  0  0  0  0  0  0  0  0
  -11.5122   46.5502  -17.4096 C   0  0  0  0  0  0  0  0  0  0  0  0
  -11.1199   47.5907  -16.4028 C   0  0  0  0  0  0  0  0  0  0  0  0
  -11.1341   46.9513  -15.0460 C   0  0  0  0  0  0  0  0  0  0  0  0
  -11.6276   46.7560  -18.8909 Br  0  0  0  0  0  0  0  0  0  0  0  0
  1  2  2  0  0  0
  2  3  1  0  0  0
  3  4  2  0  0  0
  4  5  1  0  0  0
  5  6  2  0  0  0
  5  7  1  0  0  0
  7  8  1  0  0  0
  8  9  2  0  0  0
  8 10  1  0  0  0
 10 11  2  0  0  0
 11 12  1  0  0  0
 12 13  1  0  0  0
 13 14  1  0  0  0
 14 15  2  0  0  0
 15 16  1  0  0  0
 14 17  1  0  0  0
  2 18  1  0  0  0
 18 19  1  0  0  0
 19 20  2  0  0  0
 19 21  1  0  0  0
 21 22  2  0  0  0
 22 23  1  0  0  0
 23 24  1  0  0  0
 24 25  1  0  0  0
 25 26  2  0  0  0
 26 27  1  0  0  0
 25 28  1  0  0  0
  6  1  1  0  0  0
 16 12  2  0  0  0
 27 23  2  0  0  0
M  END
> <minimizedAffinity>
-6.15068

$$$$
