


 23 24  0  0  0  0  0  0  0  0999 V2000
  -22.5293   -5.0109   10.8518 N   0  0  0  0  0  0  0  0  0  0  0  0
  -23.3245   -4.9150    9.5836 C   0  0  0  0  0  0  0  0  0  0  0  0
  -24.7520   -4.4561    9.6262 O   0  0  0  0  0  0  0  0  0  0  0  0
  -22.6922   -5.2781    8.2727 N   0  0  0  0  0  0  0  0  0  0  0  0
  -23.4874   -5.1822    7.0044 C   0  0  0  0  0  0  0  0  0  0  0  0
  -24.7092   -6.0325    6.8191 C   0  0  0  0  0  0  0  0  0  0  0  0
  -25.5044   -5.9366    5.5508 C   0  0  0  0  0  0  0  0  0  0  0  0
  -25.0778   -4.9905    4.4678 C   0  0  0  0  0  0  0  0  0  0  0  0
  -23.8560   -4.1402    4.6532 C   0  0  0  0  0  0  0  0  0  0  0  0
  -23.0608   -4.2361    5.9214 C   0  0  0  0  0  0  0  0  0  0  0  0
  -23.4294   -3.1941    3.5702 Cl  0  0  0  0  0  0  0  0  0  0  0  0
  -25.8729   -4.8946    3.1996 Cl  0  0  0  0  0  0  0  0  0  0  0  0
  -24.4262   -3.9218   14.7845 C   0  0  0  0  0  0  0  0  0  0  0  0
  -24.5782   -5.3101   14.2375 C   0  0  0  0  0  0  0  0  0  0  0  0
  -23.9459   -5.6732   12.9266 C   0  0  0  0  0  0  0  0  0  0  0  0
  -23.1616   -4.6478   12.1627 C   0  0  0  0  0  0  0  0  0  0  0  0
  -23.0096   -3.2595   12.7097 C   0  0  0  0  0  0  0  0  0  0  0  0
  -23.6419   -2.8964   14.0206 C   0  0  0  0  0  0  0  0  0  0  0  0
  -24.0980   -7.0616   12.3796 Cl  0  0  0  0  0  0  0  0  0  0  0  0
  -23.4898   -1.5080   14.5677 C   0  0  0  0  0  0  0  0  0  0  0  0
  -23.3377   -0.1196   15.1147 F   0  0  0  0  0  0  0  0  0  0  0  0
  -23.4339   -2.0628   15.9601 F   0  0  0  0  0  0  0  0  0  0  0  0
  -23.5457   -0.9532   13.1752 F   0  0  0  0  0  0  0  0  0  0  0  0
 13 14  2  0  0  0
 14 15  1  0  0  0
 15 16  2  0  0  0
 16 17  1  0  0  0
 17 18  2  0  0  0
 18 20  1  0  0  0
 20 21  1  0  0  0
 20 22  1  0  0  0
 20 23  1  0  0  0
 16  1  1  0  0  0
  1  2  1  0  0  0
  2  3  2  0  0  0
  2  4  1  0  0  0
  4  5  1  0  0  0
  5  6  2  0  0  0
  6  7  1  0  0  0
  7  8  2  0  0  0
  8  9  1  0  0  0
  9 10  2  0  0  0
  9 11  1  0  0  0
  8 12  1  0  0  0
 15 19  1  0  0  0
 18 13  1  0  0  0
 10  5  1  0  0  0
M  END
> <minimizedAffinity>
-8.34270

$$$$



 25 28  0  0  0  0  0  0  0  0999 V2000
  -22.1131   -3.7223    4.8891 C   0  0  0  0  0  0  0  0  0  0  0  0
  -23.4394   -4.4210    4.9414 C   0  0  0  0  0  0  0  0  0  0  0  0
  -23.9261   -5.0107    6.2320 C   0  0  0  0  0  0  0  0  0  0  0  0
  -23.0864   -4.9016    7.4702 C   0  0  0  0  0  0  0  0  0  0  0  0
  -23.3025   -5.3814    8.8748 C   0  0  0  0  0  0  0  0  0  0  0  0
  -22.1097   -4.9792    9.6906 C   0  0  0  0  0  0  0  0  0  0  0  0
  -21.1565   -4.2508    8.7901 S   0  0  0  0  0  0  0  0  0  0  0  0
  -21.7601   -4.2029    7.4178 C   0  0  0  0  0  0  0  0  0  0  0  0
  -21.2735   -3.6132    6.1272 N   0  0  0  0  0  0  0  0  0  0  0  0
  -24.5009   -6.1316    9.3757 N   0  0  0  0  0  0  0  0  0  0  0  0
  -25.2524   -5.7094    6.2843 C   0  0  0  0  0  0  0  0  0  0  0  0
  -26.0920   -5.8184    5.0462 C   0  0  0  0  0  0  0  0  0  0  0  0
  -25.6053   -5.2288    3.7556 C   0  0  0  0  0  0  0  0  0  0  0  0
  -24.2791   -4.5301    3.7032 C   0  0  0  0  0  0  0  0  0  0  0  0
  -20.5519   -3.8265    2.8150 C   0  0  0  0  0  0  0  0  0  0  0  0
  -21.6264   -3.1327    3.5985 C   0  0  0  0  0  0  0  0  0  0  0  0
  -21.9059   -5.2566   11.1506 C   0  0  0  0  0  0  0  0  0  0  0  0
  -21.3544   -6.5796   11.5928 O   0  0  0  0  0  0  0  0  0  0  0  0
  -22.2536   -4.2111   12.1684 C   0  0  0  0  0  0  0  0  0  0  0  0
  -23.3479   -3.2246   11.8864 C   0  0  0  0  0  0  0  0  0  0  0  0
  -23.6957   -2.1791   12.9042 C   0  0  0  0  0  0  0  0  0  0  0  0
  -22.9491   -2.1200   14.2040 C   0  0  0  0  0  0  0  0  0  0  0  0
  -21.8549   -3.1064   14.4858 C   0  0  0  0  0  0  0  0  0  0  0  0
  -21.5071   -4.1520   13.4681 C   0  0  0  0  0  0  0  0  0  0  0  0
  -23.2969   -1.0744   15.2217 Br  0  0  0  0  0  0  0  0  0  0  0  0
 15 16  1  0  0  0
 16  1  1  0  0  0
  1  2  2  0  0  0
  2  3  1  0  0  0
  3  4  2  0  0  0
  4  5  1  0  0  0
  5  6  2  0  0  0
  6  7  1  0  0  0
  7  8  1  0  0  0
  8  9  2  0  0  0
  6 17  1  0  0  0
 17 18  2  0  0  0
 17 19  1  0  0  0
 19 20  2  0  0  0
 20 21  1  0  0  0
 21 22  2  0  0  0
 22 23  1  0  0  0
 23 24  2  0  0  0
 22 25  1  0  0  0
  5 10  1  0  0  0
  3 11  1  0  0  0
 11 12  1  0  0  0
 12 13  1  0  0  0
 13 14  1  0  0  0
  9  1  1  0  0  0
 14  2  1  0  0  0
  8  4  1  0  0  0
 24 19  1  0  0  0
M  END
> <minimizedAffinity>
-9.66130

$$$$



 28 32  0  0  0  0  0  0  0  0999 V2000
  -22.7539   -5.6135    9.3203 C   0  0  0  0  0  0  0  0  0  0  0  0
  -21.8601   -7.4964    6.8092 C   0  0  0  0  0  0  0  0  0  0  0  0
  -22.1256   -7.9624    8.2100 C   0  0  0  0  0  0  0  0  0  0  0  0
  -22.5364   -7.0970    9.3642 C   0  0  0  0  0  0  0  0  0  0  0  0
  -22.6917   -7.9754   10.5701 C   0  0  0  0  0  0  0  0  0  0  0  0
  -23.0791   -7.6748   11.9877 C   0  0  0  0  0  0  0  0  0  0  0  0
  -23.1516   -8.7827   12.9963 C   0  0  0  0  0  0  0  0  0  0  0  0
  -22.8367  -10.1911   12.5874 C   0  0  0  0  0  0  0  0  0  0  0  0
  -22.4493  -10.4917   11.1699 C   0  0  0  0  0  0  0  0  0  0  0  0
  -22.3768   -9.3839   10.1612 C   0  0  0  0  0  0  0  0  0  0  0  0
  -22.0270   -9.3758    8.7026 N   0  0  0  0  0  0  0  0  0  0  0  0
  -22.9390   -4.9213    8.0026 C   0  0  0  0  0  0  0  0  0  0  0  0
  -22.1094   -3.7868    7.4784 C   0  0  0  0  0  0  0  0  0  0  0  0
  -22.6440   -3.4063    6.1294 N   0  0  0  0  0  0  0  0  0  0  0  0
  -23.8039   -4.3056    5.8200 C   0  0  0  0  0  0  0  0  0  0  0  0
  -23.9862   -5.2418    6.9776 C   0  0  0  0  0  0  0  0  0  0  0  0
  -25.0824   -6.2654    6.9489 C   0  0  0  0  0  0  0  0  0  0  0  0
  -25.9961   -6.3527    5.7626 C   0  0  0  0  0  0  0  0  0  0  0  0
  -25.8137   -5.4164    4.6049 C   0  0  0  0  0  0  0  0  0  0  0  0
  -24.7176   -4.3929    4.6337 C   0  0  0  0  0  0  0  0  0  0  0  0
  -20.9490   -3.1455    8.1799 C   0  0  0  0  0  0  0  0  0  0  0  0
  -22.7861   -4.8221   10.5942 C   0  0  0  0  0  0  0  0  0  0  0  0
  -23.9854   -3.9848   10.9269 C   0  0  0  0  0  0  0  0  0  0  0  0
  -24.0177   -3.1935   12.2007 C   0  0  0  0  0  0  0  0  0  0  0  0
  -22.8506   -3.2394   13.1419 C   0  0  0  0  0  0  0  0  0  0  0  0
  -21.6513   -4.0767   12.8092 C   0  0  0  0  0  0  0  0  0  0  0  0
  -21.6190   -4.8680   11.5354 C   0  0  0  0  0  0  0  0  0  0  0  0
  -20.4842   -4.1226   13.7504 Cl  0  0  0  0  0  0  0  0  0  0  0  0
  2  3  1  0  0  0
  3  4  2  0  0  0
  4  5  1  0  0  0
  5  6  2  0  0  0
  6  7  1  0  0  0
  7  8  2  0  0  0
  8  9  1  0  0  0
  9 10  2  0  0  0
 10 11  1  0  0  0
  4  1  1  0  0  0
  1 22  1  0  0  0
 22 23  2  0  0  0
 23 24  1  0  0  0
 24 25  2  0  0  0
 25 26  1  0  0  0
 26 27  2  0  0  0
 26 28  1  0  0  0
  1 12  1  0  0  0
 12 13  2  0  0  0
 13 14  1  0  0  0
 14 15  1  0  0  0
 15 16  2  0  0  0
 16 17  1  0  0  0
 17 18  2  0  0  0
 18 19  1  0  0  0
 19 20  2  0  0  0
 13 21  1  0  0  0
 11  3  1  0  0  0
 10  5  1  0  0  0
 27 22  1  0  0  0
 16 12  1  0  0  0
 20 15  1  0  0  0
M  END
> <minimizedAffinity>
-8.19267

$$$$



 26 28  0  0  0  0  0  0  0  0999 V2000
  -23.5648   -6.2779    9.2376 C   0  0  0  0  0  0  0  0  0  0  0  0
  -23.2170   -7.7335    9.1359 N   0  0  0  0  0  0  0  0  0  0  0  0
  -24.7526   -5.7372    8.4981 C   0  0  0  0  0  0  0  0  0  0  0  0
  -25.6401   -4.7173    9.1480 O   0  0  0  0  0  0  0  0  0  0  0  0
  -25.0528   -6.2163    7.1088 C   0  0  0  0  0  0  0  0  0  0  0  0
  -24.0331   -3.6327    3.5682 C   0  0  0  0  0  0  0  0  0  0  0  0
  -23.2400   -3.5149    4.8359 C   0  0  0  0  0  0  0  0  0  0  0  0
  -23.5799   -4.3761    6.0161 C   0  0  0  0  0  0  0  0  0  0  0  0
  -24.7129   -5.3551    5.9286 C   0  0  0  0  0  0  0  0  0  0  0  0
  -25.5060   -5.4729    4.6609 C   0  0  0  0  0  0  0  0  0  0  0  0
  -25.1661   -4.6118    3.4807 C   0  0  0  0  0  0  0  0  0  0  0  0
  -22.0293   -8.2742    9.8754 N   0  0  0  0  0  0  0  0  0  0  0  0
  -22.2280   -9.1043   11.1089 C   0  0  0  0  0  0  0  0  0  0  0  0
  -23.6150   -9.4236   11.5827 C   0  0  0  0  0  0  0  0  0  0  0  0
  -23.8137  -10.2536   12.8161 C   0  0  0  0  0  0  0  0  0  0  0  0
  -22.6255  -10.7645   13.5758 C   0  0  0  0  0  0  0  0  0  0  0  0
  -21.2386  -10.4453   13.1021 C   0  0  0  0  0  0  0  0  0  0  0  0
  -21.0398   -9.6152   11.8686 C   0  0  0  0  0  0  0  0  0  0  0  0
  -22.8242  -11.5946   14.8093 Br  0  0  0  0  0  0  0  0  0  0  0  0
  -22.7250   -5.3631   10.0789 C   0  0  0  0  0  0  0  0  0  0  0  0
  -23.2592   -4.8377   11.3783 C   0  0  0  0  0  0  0  0  0  0  0  0
  -23.7769   -5.7892   12.4159 C   0  0  0  0  0  0  0  0  0  0  0  0
  -24.3112   -5.2638   13.7153 C   0  0  0  0  0  0  0  0  0  0  0  0
  -24.3278   -3.7869   13.9771 C   0  0  0  0  0  0  0  0  0  0  0  0
  -23.8102   -2.8355   12.9395 C   0  0  0  0  0  0  0  0  0  0  0  0
  -23.2759   -3.3609   11.6401 C   0  0  0  0  0  0  0  0  0  0  0  0
  6  7  2  0  0  0
  7  8  1  0  0  0
  8  9  2  0  0  0
  9 10  1  0  0  0
 10 11  2  0  0  0
  9  5  1  0  0  0
  5  3  1  0  0  0
  3  1  1  0  0  0
  1  2  2  0  0  0
  2 12  1  0  0  0
 12 13  1  0  0  0
 13 14  2  0  0  0
 14 15  1  0  0  0
 15 16  2  0  0  0
 16 17  1  0  0  0
 17 18  2  0  0  0
 16 19  1  0  0  0
  1 20  1  0  0  0
 20 21  1  0  0  0
 21 22  2  0  0  0
 22 23  1  0  0  0
 23 24  2  0  0  0
 24 25  1  0  0  0
 25 26  2  0  0  0
  3  4  1  0  0  0
 11  6  1  0  0  0
 18 13  1  0  0  0
 26 21  1  0  0  0
M  END
> <minimizedAffinity>
-9.94262

$$$$



 31 35  0  0  0  0  0  0  0  0999 V2000
  -23.3839   -6.2208   10.0196 C   0  0  0  0  0  0  0  0  0  0  0  0
  -23.7594   -6.3109    8.5702 C   0  0  0  0  0  0  0  0  0  0  0  0
  -24.8874   -5.5799    7.9045 C   0  0  0  0  0  0  0  0  0  0  0  0
  -24.8979   -5.9650    6.4549 N   0  0  0  0  0  0  0  0  0  0  0  0
  -23.7764   -6.9340    6.2246 C   0  0  0  0  0  0  0  0  0  0  0  0
  -23.0727   -7.1478    7.5319 C   0  0  0  0  0  0  0  0  0  0  0  0
  -21.8975   -8.0770    7.6080 C   0  0  0  0  0  0  0  0  0  0  0  0
  -21.4261   -8.7923    6.3768 C   0  0  0  0  0  0  0  0  0  0  0  0
  -22.1298   -8.5785    5.0694 C   0  0  0  0  0  0  0  0  0  0  0  0
  -23.3049   -7.6494    4.9933 C   0  0  0  0  0  0  0  0  0  0  0  0
  -25.7725   -4.7918    8.1725 C   0  0  0  0  0  0  0  0  0  0  0  0
  -23.3054   -4.8823   10.6923 C   0  0  0  0  0  0  0  0  0  0  0  0
  -22.6897   -3.6413   10.1171 C   0  0  0  0  0  0  0  0  0  0  0  0
  -22.8326   -2.5419   11.1274 N   0  0  0  0  0  0  0  0  0  0  0  0
  -23.5365   -3.1034   12.3271 C   0  0  0  0  0  0  0  0  0  0  0  0
  -23.8287   -4.5499   12.0581 C   0  0  0  0  0  0  0  0  0  0  0  0
  -24.5336   -5.3774   13.0917 C   0  0  0  0  0  0  0  0  0  0  0  0
  -24.9463   -4.7585   14.3942 C   0  0  0  0  0  0  0  0  0  0  0  0
  -24.6541   -3.3120   14.6632 C   0  0  0  0  0  0  0  0  0  0  0  0
  -23.9492   -2.4845   13.6296 C   0  0  0  0  0  0  0  0  0  0  0  0
  -22.0445   -3.5209    8.7683 C   0  0  0  0  0  0  0  0  0  0  0  0
  -21.8519   -7.5491   11.6441 C   0  0  0  0  0  0  0  0  0  0  0  0
  -21.5550   -8.7973   12.4210 C   0  0  0  0  0  0  0  0  0  0  0  0
  -22.4931   -9.9656   12.3504 C   0  0  0  0  0  0  0  0  0  0  0  0
  -23.7281   -9.8857   11.5029 C   0  0  0  0  0  0  0  0  0  0  0  0
  -24.0251   -8.6374   10.7260 C   0  0  0  0  0  0  0  0  0  0  0  0
  -23.0870   -7.4690   10.7965 C   0  0  0  0  0  0  0  0  0  0  0  0
  -20.9139   -6.3807   11.7146 O   0  0  0  0  0  0  0  0  0  0  0  0
  -20.3450   -5.9543   13.0354 C   0  0  0  0  0  0  0  0  0  0  0  0
  -21.2290   -4.4408   14.9531 C   0  0  0  0  0  0  0  0  0  0  0  0
  -20.6494   -4.5892   13.5776 C   0  0  0  0  0  0  0  0  0  0  0  0
 30 31  1  0  0  0
 31 29  1  0  0  0
 29 28  1  0  0  0
 28 22  1  0  0  0
 22 23  2  0  0  0
 23 24  1  0  0  0
 24 25  2  0  0  0
 25 26  1  0  0  0
 26 27  2  0  0  0
 27  1  1  0  0  0
  1  2  1  0  0  0
  2  3  2  0  0  0
  3  4  1  0  0  0
  4  5  1  0  0  0
  5  6  2  0  0  0
  6  7  1  0  0  0
  7  8  2  0  0  0
  8  9  1  0  0  0
  9 10  2  0  0  0
  3 11  1  0  0  0
  1 12  1  0  0  0
 12 13  2  0  0  0
 13 14  1  0  0  0
 14 15  1  0  0  0
 15 16  2  0  0  0
 16 17  1  0  0  0
 17 18  2  0  0  0
 18 19  1  0  0  0
 19 20  2  0  0  0
 13 21  1  0  0  0
 27 22  1  0  0  0
  6  2  1  0  0  0
 10  5  1  0  0  0
 16 12  1  0  0  0
 20 15  1  0  0  0
M  END
> <minimizedAffinity>
-6.83276

$$$$



 28 31  0  0  0  0  0  0  0  0999 V2000
  -25.0085   -4.4415    3.3238 C   0  0  0  0  0  0  0  0  0  0  0  0
  -25.4152   -5.8105    3.7825 C   0  0  0  0  0  0  0  0  0  0  0  0
  -24.7728   -6.4169    4.9948 C   0  0  0  0  0  0  0  0  0  0  0  0
  -23.7237   -5.6544    5.7483 C   0  0  0  0  0  0  0  0  0  0  0  0
  -23.3170   -4.2854    5.2896 C   0  0  0  0  0  0  0  0  0  0  0  0
  -23.9594   -3.6790    4.0773 C   0  0  0  0  0  0  0  0  0  0  0  0
  -22.2678   -3.5228    6.0431 C   0  0  0  0  0  0  0  0  0  0  0  0
  -21.6254   -4.1292    7.2554 C   0  0  0  0  0  0  0  0  0  0  0  0
  -22.0321   -5.4982    7.7141 C   0  0  0  0  0  0  0  0  0  0  0  0
  -23.0812   -6.2608    6.9606 C   0  0  0  0  0  0  0  0  0  0  0  0
  -23.4879   -7.6298    7.4193 C   0  0  0  0  0  0  0  0  0  0  0  0
  -24.3768   -7.7860    8.6174 N   0  0  0  0  0  0  0  0  0  0  0  0
  -23.7962   -8.2206    9.9305 C   0  0  0  0  0  0  0  0  0  0  0  0
  -24.4280   -7.7725   11.2150 C   0  0  0  0  0  0  0  0  0  0  0  0
  -23.8475   -8.2071   12.5280 C   0  0  0  0  0  0  0  0  0  0  0  0
  -22.6350   -9.0899   12.5565 C   0  0  0  0  0  0  0  0  0  0  0  0
  -22.0032   -9.5381   11.2720 C   0  0  0  0  0  0  0  0  0  0  0  0
  -22.5839   -9.1034    9.9590 C   0  0  0  0  0  0  0  0  0  0  0  0
  -22.0545   -9.5245   13.8695 O   0  0  0  0  0  0  0  0  0  0  0  0
  -21.3897   -6.1047    8.9263 O   0  0  0  0  0  0  0  0  0  0  0  0
  -20.9067   -5.2228   10.0395 C   0  0  0  0  0  0  0  0  0  0  0  0
  -21.7308   -5.0651   11.2829 C   0  0  0  0  0  0  0  0  0  0  0  0
  -23.0675   -4.3879   11.2158 C   0  0  0  0  0  0  0  0  0  0  0  0
  -23.8917   -4.2303   12.4591 C   0  0  0  0  0  0  0  0  0  0  0  0
  -23.3791   -4.7498   13.7696 C   0  0  0  0  0  0  0  0  0  0  0  0
  -22.0423   -5.4270   13.8367 C   0  0  0  0  0  0  0  0  0  0  0  0
  -21.2181   -5.5847   12.5934 C   0  0  0  0  0  0  0  0  0  0  0  0
  -24.2032   -4.5921   15.0129 Cl  0  0  0  0  0  0  0  0  0  0  0  0
  1  2  2  0  0  0
  2  3  1  0  0  0
  3  4  2  0  0  0
  4  5  1  0  0  0
  5  6  2  0  0  0
  5  7  1  0  0  0
  7  8  2  0  0  0
  8  9  1  0  0  0
  9 10  2  0  0  0
 10 11  1  0  0  0
 11 12  1  0  0  0
 12 13  1  0  0  0
 13 14  2  0  0  0
 14 15  1  0  0  0
 15 16  2  0  0  0
 16 17  1  0  0  0
 17 18  2  0  0  0
 16 19  1  0  0  0
  9 20  1  0  0  0
 20 21  1  0  0  0
 21 22  1  0  0  0
 22 23  2  0  0  0
 23 24  1  0  0  0
 24 25  2  0  0  0
 25 26  1  0  0  0
 26 27  2  0  0  0
 25 28  1  0  0  0
  6  1  1  0  0  0
 10  4  1  0  0  0
 18 13  1  0  0  0
 27 22  1  0  0  0
M  END
> <minimizedAffinity>
-8.83297

$$$$



 28 31  0  0  0  0  0  0  0  0999 V2000
  -22.9385   -5.1464    9.6601 C   0  0  0  0  0  0  0  0  0  0  0  0
  -22.6900   -4.6323    8.2731 C   0  0  0  0  0  0  0  0  0  0  0  0
  -23.6856   -4.9017    7.1838 C   0  0  0  0  0  0  0  0  0  0  0  0
  -24.9295   -5.6852    7.4817 C   0  0  0  0  0  0  0  0  0  0  0  0
  -25.9250   -5.9545    6.3925 C   0  0  0  0  0  0  0  0  0  0  0  0
  -25.6765   -5.4403    5.0054 C   0  0  0  0  0  0  0  0  0  0  0  0
  -24.4326   -4.6569    4.7076 C   0  0  0  0  0  0  0  0  0  0  0  0
  -23.4372   -4.3875    5.7968 C   0  0  0  0  0  0  0  0  0  0  0  0
  -22.1931   -3.6040    5.4990 C   0  0  0  0  0  0  0  0  0  0  0  0
  -21.1977   -3.3346    6.5882 C   0  0  0  0  0  0  0  0  0  0  0  0
  -21.4461   -3.8488    7.9752 C   0  0  0  0  0  0  0  0  0  0  0  0
  -20.7289   -3.6135    8.6067 O   0  0  0  0  0  0  0  0  0  0  0  0
  -22.9802   -6.6238    9.9161 C   0  0  0  0  0  0  0  0  0  0  0  0
  -21.8562   -7.4986    9.4455 C   0  0  0  0  0  0  0  0  0  0  0  0
  -21.8980   -8.9760    9.7015 C   0  0  0  0  0  0  0  0  0  0  0  0
  -23.0637   -9.5786   10.4281 C   0  0  0  0  0  0  0  0  0  0  0  0
  -24.1876   -8.7039   10.8987 C   0  0  0  0  0  0  0  0  0  0  0  0
  -24.1459   -7.2265   10.6427 C   0  0  0  0  0  0  0  0  0  0  0  0
  -24.9336   -6.7528   10.9945 Cl  0  0  0  0  0  0  0  0  0  0  0  0
  -22.2624   -4.2478   12.0023 C   0  0  0  0  0  0  0  0  0  0  0  0
  -21.1730   -5.2758   12.0822 O   0  0  0  0  0  0  0  0  0  0  0  0
  -23.1452   -4.1831   10.7913 N   0  0  0  0  0  0  0  0  0  0  0  0
  -22.8825   -1.3580   15.3956 C   0  0  0  0  0  0  0  0  0  0  0  0
  -21.8592   -2.4481   15.5163 C   0  0  0  0  0  0  0  0  0  0  0  0
  -21.6525   -3.4114   14.3852 C   0  0  0  0  0  0  0  0  0  0  0  0
  -22.4691   -3.2846   13.1334 C   0  0  0  0  0  0  0  0  0  0  0  0
  -23.4924   -2.1945   13.0126 C   0  0  0  0  0  0  0  0  0  0  0  0
  -23.6991   -1.2312   14.1438 C   0  0  0  0  0  0  0  0  0  0  0  0
 23 24  2  0  0  0
 24 25  1  0  0  0
 25 26  2  0  0  0
 26 27  1  0  0  0
 27 28  2  0  0  0
 26 20  1  0  0  0
 20 21  2  0  0  0
 20 22  1  0  0  0
  1 22  1  0  0  0
  1 13  1  0  0  0
 13 14  2  0  0  0
 14 15  1  0  0  0
 15 16  2  0  0  0
 16 17  1  0  0  0
 17 18  2  0  0  0
 18 19  1  0  0  0
  1  2  1  0  0  0
  2  3  1  0  0  0
  3  4  2  0  0  0
  4  5  1  0  0  0
  5  6  2  0  0  0
  6  7  1  0  0  0
  7  8  2  0  0  0
  8  9  1  0  0  0
  9 10  2  0  0  0
 10 11  1  0  0  0
 11 12  1  0  0  0
 28 23  1  0  0  0
 18 13  1  0  0  0
 11  2  2  0  0  0
  8  3  1  0  0  0
M  END
> <minimizedAffinity>
-8.54335

$$$$



 28 31  0  0  0  0  0  0  0  0999 V2000
  -23.2765   -4.1691    7.7372 C   0  0  0  0  0  0  0  0  0  0  0  0
  -24.3634   -5.1583    7.4369 C   0  0  0  0  0  0  0  0  0  0  0  0
  -24.6588   -5.0908    5.9679 C   0  0  0  0  0  0  0  0  0  0  0  0
  -25.6345   -5.8348    5.1051 C   0  0  0  0  0  0  0  0  0  0  0  0
  -25.7058   -5.5479    3.6346 C   0  0  0  0  0  0  0  0  0  0  0  0
  -24.8015   -4.5169    3.0268 C   0  0  0  0  0  0  0  0  0  0  0  0
  -23.8259   -3.7729    3.8896 C   0  0  0  0  0  0  0  0  0  0  0  0
  -23.7546   -4.0598    5.3601 C   0  0  0  0  0  0  0  0  0  0  0  0
  -22.9002   -3.4902    6.4536 N   0  0  0  0  0  0  0  0  0  0  0  0
  -23.4411   -4.2349   10.3292 N   0  0  0  0  0  0  0  0  0  0  0  0
  -22.6720   -3.9052    9.0843 C   0  0  0  0  0  0  0  0  0  0  0  0
  -21.2983   -3.3115    9.1867 O   0  0  0  0  0  0  0  0  0  0  0  0
  -23.2944   -1.4837   14.7347 C   0  0  0  0  0  0  0  0  0  0  0  0
  -22.7633   -2.5954   13.8791 C   0  0  0  0  0  0  0  0  0  0  0  0
  -21.6276   -3.4431   14.3707 C   0  0  0  0  0  0  0  0  0  0  0  0
  -21.0964   -4.5548   13.5151 C   0  0  0  0  0  0  0  0  0  0  0  0
  -21.7009   -4.8187   12.1679 C   0  0  0  0  0  0  0  0  0  0  0  0
  -22.8366   -3.9710   11.6763 C   0  0  0  0  0  0  0  0  0  0  0  0
  -23.3678   -2.8593   12.5319 C   0  0  0  0  0  0  0  0  0  0  0  0
  -21.1698   -5.9304   11.3123 C   0  0  0  0  0  0  0  0  0  0  0  0
  -25.0366   -6.0573    8.4312 S   0  0  0  0  0  0  0  0  0  0  0  0
  -24.2545   -7.1404    9.1130 C   0  0  0  0  0  0  0  0  0  0  0  0
  -23.1247   -7.8160    8.3938 C   0  0  0  0  0  0  0  0  0  0  0  0
  -22.3427   -8.8992    9.0757 C   0  0  0  0  0  0  0  0  0  0  0  0
  -22.6902   -9.3069   10.4767 C   0  0  0  0  0  0  0  0  0  0  0  0
  -23.8200   -8.6314   11.1960 C   0  0  0  0  0  0  0  0  0  0  0  0
  -24.6021   -7.5481   10.5141 C   0  0  0  0  0  0  0  0  0  0  0  0
  -21.9082  -10.3901   11.1586 Cl  0  0  0  0  0  0  0  0  0  0  0  0
 13 14  1  0  0  0
 14 15  2  0  0  0
 15 16  1  0  0  0
 16 17  2  0  0  0
 17 18  1  0  0  0
 18 19  2  0  0  0
 18 10  1  0  0  0
 10 11  1  0  0  0
 11 12  2  0  0  0
 11  1  1  0  0  0
  1  2  2  0  0  0
  2  3  1  0  0  0
  3  4  2  0  0  0
  4  5  1  0  0  0
  5  6  2  0  0  0
  6  7  1  0  0  0
  7  8  2  0  0  0
  8  9  1  0  0  0
  2 21  1  0  0  0
 21 22  1  0  0  0
 22 23  2  0  0  0
 23 24  1  0  0  0
 24 25  2  0  0  0
 25 26  1  0  0  0
 26 27  2  0  0  0
 25 28  1  0  0  0
 17 20  1  0  0  0
 19 14  1  0  0  0
  9  1  1  0  0  0
  8  3  1  0  0  0
 27 22  1  0  0  0
M  END
> <minimizedAffinity>
-9.99158

$$$$



 24 26  0  0  0  0  0  0  0  0999 V2000
  -24.7299   -5.2477    6.7591 C   0  0  0  0  0  0  0  0  0  0  0  0
  -25.2360   -5.7786    5.4506 C   0  0  0  0  0  0  0  0  0  0  0  0
  -24.5464   -5.0300    4.3487 C   0  0  0  0  0  0  0  0  0  0  0  0
  -23.6140   -4.0366    4.9762 C   0  0  0  0  0  0  0  0  0  0  0  0
  -22.7244   -3.0770    4.2428 O   0  0  0  0  0  0  0  0  0  0  0  0
  -23.7274   -4.1711    6.4658 C   0  0  0  0  0  0  0  0  0  0  0  0
  -25.1520   -5.7120    8.1215 N   0  0  0  0  0  0  0  0  0  0  0  0
  -23.4205   -7.6474    8.0442 C   0  0  0  0  0  0  0  0  0  0  0  0
  -22.6479   -8.7278    8.7412 C   0  0  0  0  0  0  0  0  0  0  0  0
  -22.8341   -8.9531   10.2125 C   0  0  0  0  0  0  0  0  0  0  0  0
  -23.7930   -8.0981   10.9867 C   0  0  0  0  0  0  0  0  0  0  0  0
  -24.5656   -7.0178   10.2897 C   0  0  0  0  0  0  0  0  0  0  0  0
  -24.3794   -6.7924    8.8185 C   0  0  0  0  0  0  0  0  0  0  0  0
  -23.9793   -8.3235   12.4580 Cl  0  0  0  0  0  0  0  0  0  0  0  0
  -22.0615  -10.0336   10.9095 Cl  0  0  0  0  0  0  0  0  0  0  0  0
  -22.9711   -3.3697    7.4836 N   0  0  0  0  0  0  0  0  0  0  0  0
  -22.4387   -4.0355    8.7178 C   0  0  0  0  0  0  0  0  0  0  0  0
  -21.2890   -4.9934    8.6166 C   0  0  0  0  0  0  0  0  0  0  0  0
  -20.7566   -5.6592    9.8509 C   0  0  0  0  0  0  0  0  0  0  0  0
  -21.3740   -5.3669   11.1863 C   0  0  0  0  0  0  0  0  0  0  0  0
  -22.5239   -4.4088   11.2875 C   0  0  0  0  0  0  0  0  0  0  0  0
  -23.0562   -3.7431   10.0533 C   0  0  0  0  0  0  0  0  0  0  0  0
  -23.1413   -4.1165   12.6229 Cl  0  0  0  0  0  0  0  0  0  0  0  0
  -20.8417   -6.0326   12.4206 Cl  0  0  0  0  0  0  0  0  0  0  0  0
  8  9  2  0  0  0
  9 10  1  0  0  0
 10 11  2  0  0  0
 11 12  1  0  0  0
 12 13  2  0  0  0
 13  7  1  0  0  0
  1  7  1  0  0  0
  1  2  1  0  0  0
  2  3  2  0  0  0
  3  4  1  0  0  0
  4  5  2  0  0  0
  4  6  1  0  0  0
  6 16  1  0  0  0
 16 17  1  0  0  0
 17 18  2  0  0  0
 18 19  1  0  0  0
 19 20  2  0  0  0
 20 21  1  0  0  0
 21 22  2  0  0  0
 21 23  1  0  0  0
 20 24  1  0  0  0
 11 14  1  0  0  0
 10 15  1  0  0  0
 13  8  1  0  0  0
  6  1  1  0  0  0
 22 17  1  0  0  0
M  END
> <minimizedAffinity>
-7.54528

$$$$



 26 28  0  0  0  0  0  0  0  0999 V2000
  -23.5648   -6.2779    9.2376 C   0  0  0  0  0  0  0  0  0  0  0  0
  -23.2170   -7.7335    9.1359 N   0  0  0  0  0  0  0  0  0  0  0  0
  -24.7526   -5.7372    8.4981 C   0  0  0  0  0  0  0  0  0  0  0  0
  -25.6401   -4.7173    9.1480 O   0  0  0  0  0  0  0  0  0  0  0  0
  -25.0528   -6.2163    7.1088 C   0  0  0  0  0  0  0  0  0  0  0  0
  -24.0331   -3.6327    3.5682 C   0  0  0  0  0  0  0  0  0  0  0  0
  -23.2400   -3.5149    4.8359 C   0  0  0  0  0  0  0  0  0  0  0  0
  -23.5799   -4.3761    6.0161 C   0  0  0  0  0  0  0  0  0  0  0  0
  -24.7129   -5.3551    5.9286 C   0  0  0  0  0  0  0  0  0  0  0  0
  -25.5060   -5.4729    4.6609 C   0  0  0  0  0  0  0  0  0  0  0  0
  -25.1661   -4.6118    3.4807 C   0  0  0  0  0  0  0  0  0  0  0  0
  -22.0293   -8.2742    9.8754 N   0  0  0  0  0  0  0  0  0  0  0  0
  -22.2280   -9.1043   11.1089 C   0  0  0  0  0  0  0  0  0  0  0  0
  -23.6150   -9.4236   11.5827 C   0  0  0  0  0  0  0  0  0  0  0  0
  -23.8137  -10.2536   12.8161 C   0  0  0  0  0  0  0  0  0  0  0  0
  -22.6255  -10.7645   13.5758 C   0  0  0  0  0  0  0  0  0  0  0  0
  -21.2386  -10.4453   13.1021 C   0  0  0  0  0  0  0  0  0  0  0  0
  -21.0398   -9.6152   11.8686 C   0  0  0  0  0  0  0  0  0  0  0  0
  -22.8242  -11.5946   14.8093 Br  0  0  0  0  0  0  0  0  0  0  0  0
  -22.7250   -5.3631   10.0789 C   0  0  0  0  0  0  0  0  0  0  0  0
  -23.2592   -4.8377   11.3783 C   0  0  0  0  0  0  0  0  0  0  0  0
  -23.7769   -5.7892   12.4159 C   0  0  0  0  0  0  0  0  0  0  0  0
  -24.3112   -5.2638   13.7153 C   0  0  0  0  0  0  0  0  0  0  0  0
  -24.3278   -3.7869   13.9771 C   0  0  0  0  0  0  0  0  0  0  0  0
  -23.8102   -2.8355   12.9395 C   0  0  0  0  0  0  0  0  0  0  0  0
  -23.2759   -3.3609   11.6401 C   0  0  0  0  0  0  0  0  0  0  0  0
  6  7  2  0  0  0
  7  8  1  0  0  0
  8  9  2  0  0  0
  9 10  1  0  0  0
 10 11  2  0  0  0
  9  5  1  0  0  0
  5  3  1  0  0  0
  3  1  1  0  0  0
  1  2  2  0  0  0
  2 12  1  0  0  0
 12 13  1  0  0  0
 13 14  2  0  0  0
 14 15  1  0  0  0
 15 16  2  0  0  0
 16 17  1  0  0  0
 17 18  2  0  0  0
 16 19  1  0  0  0
  1 20  1  0  0  0
 20 21  1  0  0  0
 21 22  2  0  0  0
 22 23  1  0  0  0
 23 24  2  0  0  0
 24 25  1  0  0  0
 25 26  2  0  0  0
  3  4  1  0  0  0
 11  6  1  0  0  0
 18 13  1  0  0  0
 26 21  1  0  0  0
M  END
> <minimizedAffinity>
-9.94262

$$$$



 27 30  0  0  0  0  0  0  0  0999 V2000
  -23.5255   -7.2601   10.2630 C   0  0  0  0  0  0  0  0  0  0  0  0
  -20.3708   -6.5296    9.8585 C   0  0  0  0  0  0  0  0  0  0  0  0
  -21.2259   -6.1300   11.0243 C   0  0  0  0  0  0  0  0  0  0  0  0
  -22.6759   -6.4658   11.2102 C   0  0  0  0  0  0  0  0  0  0  0  0
  -23.1273   -5.8678   12.5098 C   0  0  0  0  0  0  0  0  0  0  0  0
  -24.4534   -5.8745   13.2107 C   0  0  0  0  0  0  0  0  0  0  0  0
  -24.6084   -5.1758   14.5290 C   0  0  0  0  0  0  0  0  0  0  0  0
  -23.4372   -4.4705   15.1462 C   0  0  0  0  0  0  0  0  0  0  0  0
  -22.1112   -4.4638   14.4452 C   0  0  0  0  0  0  0  0  0  0  0  0
  -21.9562   -5.1625   13.1270 C   0  0  0  0  0  0  0  0  0  0  0  0
  -20.7811   -5.3246   12.2089 N   0  0  0  0  0  0  0  0  0  0  0  0
  -24.0341   -6.6279    9.0013 C   0  0  0  0  0  0  0  0  0  0  0  0
  -24.8819   -5.3924    9.0704 C   0  0  0  0  0  0  0  0  0  0  0  0
  -25.3904   -4.7602    7.8088 C   0  0  0  0  0  0  0  0  0  0  0  0
  -25.0511   -5.3634    6.4780 C   0  0  0  0  0  0  0  0  0  0  0  0
  -24.2032   -6.5989    6.4089 C   0  0  0  0  0  0  0  0  0  0  0  0
  -23.6947   -7.2311    7.6705 C   0  0  0  0  0  0  0  0  0  0  0  0
  -22.8468   -8.4666    7.6014 O   0  0  0  0  0  0  0  0  0  0  0  0
  -21.9588   -8.7014    6.4155 C   0  0  0  0  0  0  0  0  0  0  0  0
  -23.8666   -8.6865   10.5773 N   0  0  0  0  0  0  0  0  0  0  0  0
  -23.1163   -9.4181   11.6505 C   0  0  0  0  0  0  0  0  0  0  0  0
  -21.6378   -9.6337   11.5181 C   0  0  0  0  0  0  0  0  0  0  0  0
  -20.8875  -10.3653   12.5913 C   0  0  0  0  0  0  0  0  0  0  0  0
  -21.6156  -10.8813   13.7969 C   0  0  0  0  0  0  0  0  0  0  0  0
  -23.0941  -10.6658   13.9293 C   0  0  0  0  0  0  0  0  0  0  0  0
  -23.8445   -9.9342   12.8561 C   0  0  0  0  0  0  0  0  0  0  0  0
  -20.8653  -11.6129   14.8701 Cl  0  0  0  0  0  0  0  0  0  0  0  0
  2  3  1  0  0  0
  3  4  2  0  0  0
  4  5  1  0  0  0
  5  6  2  0  0  0
  6  7  1  0  0  0
  7  8  2  0  0  0
  8  9  1  0  0  0
  9 10  2  0  0  0
 10 11  1  0  0  0
  4  1  1  0  0  0
  1 12  1  0  0  0
 12 13  2  0  0  0
 13 14  1  0  0  0
 14 15  2  0  0  0
 15 16  1  0  0  0
 16 17  2  0  0  0
 17 18  1  0  0  0
 18 19  1  0  0  0
  1 20  1  0  0  0
 20 21  1  0  0  0
 21 22  2  0  0  0
 22 23  1  0  0  0
 23 24  2  0  0  0
 24 25  1  0  0  0
 25 26  2  0  0  0
 24 27  1  0  0  0
 11  3  1  0  0  0
 10  5  1  0  0  0
 17 12  1  0  0  0
 26 21  1  0  0  0
M  END
> <minimizedAffinity>
-8.11096

$$$$



 28 32  0  0  0  0  0  0  0  0999 V2000
  -23.6037   -4.8518   11.3167 C   0  0  0  0  0  0  0  0  0  0  0  0
  -23.6963   -3.6464   12.2046 C   0  0  0  0  0  0  0  0  0  0  0  0
  -23.5891   -2.2166   11.7641 C   0  0  0  0  0  0  0  0  0  0  0  0
  -23.7388   -1.3457   12.9762 N   0  0  0  0  0  0  0  0  0  0  0  0
  -23.9385   -2.2373   14.1658 C   0  0  0  0  0  0  0  0  0  0  0  0
  -23.9122   -3.6593   13.6890 C   0  0  0  0  0  0  0  0  0  0  0  0
  -24.0883   -4.7820   14.6680 C   0  0  0  0  0  0  0  0  0  0  0  0
  -24.2908   -4.4829   16.1238 C   0  0  0  0  0  0  0  0  0  0  0  0
  -24.3171   -3.0609   16.6006 C   0  0  0  0  0  0  0  0  0  0  0  0
  -24.1410   -1.9382   15.6216 C   0  0  0  0  0  0  0  0  0  0  0  0
  -24.0687   -4.7719    9.8927 C   0  0  0  0  0  0  0  0  0  0  0  0
  -25.4349   -5.1329    9.3898 C   0  0  0  0  0  0  0  0  0  0  0  0
  -25.4596   -4.9011    7.9081 N   0  0  0  0  0  0  0  0  0  0  0  0
  -24.1087   -4.3968    7.4952 C   0  0  0  0  0  0  0  0  0  0  0  0
  -23.2490   -4.3169    8.7218 C   0  0  0  0  0  0  0  0  0  0  0  0
  -21.8309   -3.8402    8.6140 C   0  0  0  0  0  0  0  0  0  0  0  0
  -21.2724   -3.4434    7.2797 C   0  0  0  0  0  0  0  0  0  0  0  0
  -22.1321   -3.5232    6.0531 C   0  0  0  0  0  0  0  0  0  0  0  0
  -23.5502   -3.9999    6.1609 C   0  0  0  0  0  0  0  0  0  0  0  0
  -21.6653   -6.1696   12.4374 C   0  0  0  0  0  0  0  0  0  0  0  0
  -21.1077   -7.4549   12.9732 C   0  0  0  0  0  0  0  0  0  0  0  0
  -21.9312   -8.7078   12.9242 C   0  0  0  0  0  0  0  0  0  0  0  0
  -23.3121   -8.6753   12.3394 C   0  0  0  0  0  0  0  0  0  0  0  0
  -23.8696   -7.3900   11.8035 C   0  0  0  0  0  0  0  0  0  0  0  0
  -23.0462   -6.1371   11.8525 C   0  0  0  0  0  0  0  0  0  0  0  0
  -24.1354   -9.9281   12.2904 Cl  0  0  0  0  0  0  0  0  0  0  0  0
  -20.3922   -4.3660   13.8071 C   0  0  0  0  0  0  0  0  0  0  0  0
  -20.8419   -4.9167   12.4863 O   0  0  0  0  0  0  0  0  0  0  0  0
 27 28  1  0  0  0
 28 20  1  0  0  0
 20 21  2  0  0  0
 21 22  1  0  0  0
 22 23  2  0  0  0
 23 24  1  0  0  0
 24 25  2  0  0  0
 25  1  1  0  0  0
  1  2  1  0  0  0
  2  3  2  0  0  0
  3  4  1  0  0  0
  4  5  1  0  0  0
  5  6  2  0  0  0
  6  7  1  0  0  0
  7  8  2  0  0  0
  8  9  1  0  0  0
  9 10  2  0  0  0
  1 11  1  0  0  0
 11 12  2  0  0  0
 12 13  1  0  0  0
 13 14  1  0  0  0
 14 15  2  0  0  0
 15 16  1  0  0  0
 16 17  2  0  0  0
 17 18  1  0  0  0
 18 19  2  0  0  0
 23 26  1  0  0  0
 25 20  1  0  0  0
  6  2  1  0  0  0
 10  5  1  0  0  0
 15 11  1  0  0  0
 19 14  1  0  0  0
M  END
> <minimizedAffinity>
-9.03260

$$$$



 25 26  0  0  0  0  0  0  0  0999 V2000
  -22.6919   -4.6906    5.0526 C   0  0  0  0  0  0  0  0  0  0  0  0
  -23.9614   -4.7943    4.2603 C   0  0  0  0  0  0  0  0  0  0  0  0
  -25.2309   -4.8979    3.4680 Cl  0  0  0  0  0  0  0  0  0  0  0  0
  -23.8454   -3.3466    3.8852 Cl  0  0  0  0  0  0  0  0  0  0  0  0
  -24.0773   -6.2419    4.6354 Cl  0  0  0  0  0  0  0  0  0  0  0  0
  -22.3592   -4.7566    7.6285 C   0  0  0  0  0  0  0  0  0  0  0  0
  -22.0274   -6.2172    7.5483 O   0  0  0  0  0  0  0  0  0  0  0  0
  -22.6915   -3.9933    6.3806 N   0  0  0  0  0  0  0  0  0  0  0  0
  -22.5177   -4.8519   10.2200 C   0  0  0  0  0  0  0  0  0  0  0  0
  -22.3588   -4.0592    8.9565 C   0  0  0  0  0  0  0  0  0  0  0  0
  -22.5164   -2.7597   14.2040 C   0  0  0  0  0  0  0  0  0  0  0  0
  -21.5709   -3.8970   13.9538 C   0  0  0  0  0  0  0  0  0  0  0  0
  -21.5713   -4.5944   12.6258 C   0  0  0  0  0  0  0  0  0  0  0  0
  -22.5173   -4.1545   11.5480 C   0  0  0  0  0  0  0  0  0  0  0  0
  -23.4627   -3.0172   11.7982 C   0  0  0  0  0  0  0  0  0  0  0  0
  -23.4623   -2.3198   13.1262 C   0  0  0  0  0  0  0  0  0  0  0  0
  -21.4229   -5.2844    4.5169 N   0  0  0  0  0  0  0  0  0  0  0  0
  -20.9025   -4.8575    3.1764 C   0  0  0  0  0  0  0  0  0  0  0  0
  -20.7946   -5.8551    2.0613 C   0  0  0  0  0  0  0  0  0  0  0  0
  -20.2743   -5.4282    0.7208 C   0  0  0  0  0  0  0  0  0  0  0  0
  -19.8618   -4.0037    0.4953 C   0  0  0  0  0  0  0  0  0  0  0  0
  -19.9698   -3.0062    1.6103 C   0  0  0  0  0  0  0  0  0  0  0  0
  -20.4901   -3.4331    2.9509 C   0  0  0  0  0  0  0  0  0  0  0  0
  -19.5573   -1.5818    1.3848 Cl  0  0  0  0  0  0  0  0  0  0  0  0
  -19.3415   -3.5768   -0.8452 Cl  0  0  0  0  0  0  0  0  0  0  0  0
 11 12  2  0  0  0
 12 13  1  0  0  0
 13 14  2  0  0  0
 14 15  1  0  0  0
 15 16  2  0  0  0
 14  9  1  0  0  0
  9 10  2  0  0  0
 10  6  1  0  0  0
  6  7  2  0  0  0
  6  8  1  0  0  0
  1  8  1  0  0  0
  1  2  1  0  0  0
  2  3  1  0  0  0
  2  4  1  0  0  0
  2  5  1  0  0  0
  1 17  1  0  0  0
 17 18  1  0  0  0
 18 19  2  0  0  0
 19 20  1  0  0  0
 20 21  2  0  0  0
 21 22  1  0  0  0
 22 23  2  0  0  0
 22 24  1  0  0  0
 21 25  1  0  0  0
 16 11  1  0  0  0
 23 18  1  0  0  0
M  END
> <minimizedAffinity>
-9.28966

$$$$



 30 33  0  0  0  0  0  0  0  0999 V2000
  -21.1928   -7.5389   13.1095 C   0  0  0  0  0  0  0  0  0  0  0  0
  -21.8853   -7.8666   11.8198 C   0  0  0  0  0  0  0  0  0  0  0  0
  -22.1901   -9.2431   11.3078 C   0  0  0  0  0  0  0  0  0  0  0  0
  -22.8877   -9.1025    9.9873 S   0  0  0  0  0  0  0  0  0  0  0  0
  -23.0140   -7.6391    9.6833 C   0  0  0  0  0  0  0  0  0  0  0  0
  -22.3945   -6.8753   10.8158 C   0  0  0  0  0  0  0  0  0  0  0  0
  -21.8560  -10.5337   11.9955 C   0  0  0  0  0  0  0  0  0  0  0  0
  -23.6484   -7.0441    8.4613 N   0  0  0  0  0  0  0  0  0  0  0  0
  -23.1605   -7.4339    7.0974 C   0  0  0  0  0  0  0  0  0  0  0  0
  -22.0381   -8.4188    6.9557 O   0  0  0  0  0  0  0  0  0  0  0  0
  -23.7950   -6.8389    5.8754 C   0  0  0  0  0  0  0  0  0  0  0  0
  -23.0154   -6.7410    4.5977 C   0  0  0  0  0  0  0  0  0  0  0  0
  -23.6498   -6.1460    3.3757 C   0  0  0  0  0  0  0  0  0  0  0  0
  -25.0639   -5.6488    3.4314 C   0  0  0  0  0  0  0  0  0  0  0  0
  -25.8436   -5.7466    4.7091 C   0  0  0  0  0  0  0  0  0  0  0  0
  -25.2091   -6.3417    5.9311 C   0  0  0  0  0  0  0  0  0  0  0  0
  -22.3006   -5.3822   10.9252 C   0  0  0  0  0  0  0  0  0  0  0  0
  -23.0758   -4.6577   11.9854 C   0  0  0  0  0  0  0  0  0  0  0  0
  -23.8988   -5.4306   12.9730 C   0  0  0  0  0  0  0  0  0  0  0  0
  -24.6740   -4.7061   14.0333 C   0  0  0  0  0  0  0  0  0  0  0  0
  -24.6261   -3.2085   14.1059 C   0  0  0  0  0  0  0  0  0  0  0  0
  -23.8031   -2.4357   13.1184 C   0  0  0  0  0  0  0  0  0  0  0  0
  -23.0280   -3.1602   12.0582 C   0  0  0  0  0  0  0  0  0  0  0  0
  -21.4316   -4.6137    9.9743 N   0  0  0  0  0  0  0  0  0  0  0  0
  -21.9733   -4.1844    8.6430 C   0  0  0  0  0  0  0  0  0  0  0  0
  -21.0396   -3.9570    7.4913 C   0  0  0  0  0  0  0  0  0  0  0  0
  -21.5813   -3.5278    6.1601 C   0  0  0  0  0  0  0  0  0  0  0  0
  -23.0569   -3.3259    5.9805 C   0  0  0  0  0  0  0  0  0  0  0  0
  -23.9906   -3.5533    7.1322 C   0  0  0  0  0  0  0  0  0  0  0  0
  -23.4488   -3.9826    8.4635 C   0  0  0  0  0  0  0  0  0  0  0  0
  1  2  1  0  0  0
  2  3  2  0  0  0
  3  4  1  0  0  0
  4  5  1  0  0  0
  5  6  2  0  0  0
  6 17  1  0  0  0
 17 18  1  0  0  0
 18 19  2  0  0  0
 19 20  1  0  0  0
 20 21  2  0  0  0
 21 22  1  0  0  0
 22 23  2  0  0  0
 17 24  1  0  0  0
 24 25  1  0  0  0
 25 26  2  0  0  0
 26 27  1  0  0  0
 27 28  2  0  0  0
 28 29  1  0  0  0
 29 30  2  0  0  0
  5  8  1  0  0  0
  8  9  1  0  0  0
  9 10  2  0  0  0
  9 11  1  0  0  0
 11 12  2  0  0  0
 12 13  1  0  0  0
 13 14  2  0  0  0
 14 15  1  0  0  0
 15 16  2  0  0  0
  3  7  1  0  0  0
  6  2  1  0  0  0
 23 18  1  0  0  0
 30 25  1  0  0  0
 16 11  1  0  0  0
M  END
> <minimizedAffinity>
-8.92426

$$$$



 27 30  0  0  0  0  0  0  0  0999 V2000
  -22.7410   -4.3843    8.3239 C   0  0  0  0  0  0  0  0  0  0  0  0
  -23.9005   -5.0594    7.6533 C   0  0  0  0  0  0  0  0  0  0  0  0
  -23.9443   -4.5973    6.2269 C   0  0  0  0  0  0  0  0  0  0  0  0
  -24.8691   -4.9272    5.0930 C   0  0  0  0  0  0  0  0  0  0  0  0
  -24.6614   -4.2964    3.7480 C   0  0  0  0  0  0  0  0  0  0  0  0
  -23.5289   -3.3357    3.5371 C   0  0  0  0  0  0  0  0  0  0  0  0
  -22.6041   -3.0058    4.6710 C   0  0  0  0  0  0  0  0  0  0  0  0
  -22.8118   -3.6366    6.0159 C   0  0  0  0  0  0  0  0  0  0  0  0
  -22.0681   -3.5050    7.3119 N   0  0  0  0  0  0  0  0  0  0  0  0
  -21.4989   -4.9055   12.6176 C   0  0  0  0  0  0  0  0  0  0  0  0
  -22.6149   -3.9661   12.2684 C   0  0  0  0  0  0  0  0  0  0  0  0
  -23.0289   -3.7923   10.8372 C   0  0  0  0  0  0  0  0  0  0  0  0
  -22.3270   -4.5580    9.7551 C   0  0  0  0  0  0  0  0  0  0  0  0
  -21.2110   -5.4975   10.1043 C   0  0  0  0  0  0  0  0  0  0  0  0
  -20.7970   -5.6712   11.5355 C   0  0  0  0  0  0  0  0  0  0  0  0
  -24.8497   -6.0268    8.2962 S   0  0  0  0  0  0  0  0  0  0  0  0
  -24.4706   -7.4717    8.4316 C   0  0  0  0  0  0  0  0  0  0  0  0
  -24.1280   -8.0342    9.7792 C   0  0  0  0  0  0  0  0  0  0  0  0
  -24.8354   -7.5327   11.0032 O   0  0  0  0  0  0  0  0  0  0  0  0
  -23.0779   -9.0981    9.9030 N   0  0  0  0  0  0  0  0  0  0  0  0
  -22.7352   -9.6606   11.2506 C   0  0  0  0  0  0  0  0  0  0  0  0
  -21.3026   -9.7404   11.6879 C   0  0  0  0  0  0  0  0  0  0  0  0
  -20.9599  -10.3028   13.0355 C   0  0  0  0  0  0  0  0  0  0  0  0
  -22.0498  -10.7856   13.9460 C   0  0  0  0  0  0  0  0  0  0  0  0
  -23.4826  -10.7059   13.5087 C   0  0  0  0  0  0  0  0  0  0  0  0
  -23.8252  -10.1434   12.1611 C   0  0  0  0  0  0  0  0  0  0  0  0
  -21.7072  -11.3481   15.2936 Br  0  0  0  0  0  0  0  0  0  0  0  0
 10 11  2  0  0  0
 11 12  1  0  0  0
 12 13  2  0  0  0
 13 14  1  0  0  0
 14 15  2  0  0  0
 13  1  1  0  0  0
  1  2  2  0  0  0
  2  3  1  0  0  0
  3  4  2  0  0  0
  4  5  1  0  0  0
  5  6  2  0  0  0
  6  7  1  0  0  0
  7  8  2  0  0  0
  8  9  1  0  0  0
  2 16  1  0  0  0
 16 17  1  0  0  0
 17 18  1  0  0  0
 18 19  2  0  0  0
 18 20  1  0  0  0
 20 21  1  0  0  0
 21 22  2  0  0  0
 22 23  1  0  0  0
 23 24  2  0  0  0
 24 25  1  0  0  0
 25 26  2  0  0  0
 24 27  1  0  0  0
 15 10  1  0  0  0
  9  1  1  0  0  0
  8  3  1  0  0  0
 26 21  1  0  0  0
M  END
> <minimizedAffinity>
-9.31096

$$$$



 29 33  0  0  0  0  0  0  0  0999 V2000
  -23.0025   -6.3707   11.5862 C   0  0  0  0  0  0  0  0  0  0  0  0
  -22.8269   -5.3456   12.6672 C   0  0  0  0  0  0  0  0  0  0  0  0
  -23.0874   -3.8972   12.3767 C   0  0  0  0  0  0  0  0  0  0  0  0
  -23.5235   -3.4739   11.0053 N   0  0  0  0  0  0  0  0  0  0  0  0
  -23.6990   -4.4990    9.9244 C   0  0  0  0  0  0  0  0  0  0  0  0
  -23.4386   -5.9474   10.2149 C   0  0  0  0  0  0  0  0  0  0  0  0
  -23.6939   -6.7254    8.9581 C   0  0  0  0  0  0  0  0  0  0  0  0
  -24.1122   -5.7578    7.8908 C   0  0  0  0  0  0  0  0  0  0  0  0
  -24.1154   -4.3819    8.4881 S   0  0  0  0  0  0  0  0  0  0  0  0
  -23.5553   -8.2102    8.7968 N   0  0  0  0  0  0  0  0  0  0  0  0
  -22.9119   -2.8722   13.4576 C   0  0  0  0  0  0  0  0  0  0  0  0
  -22.4758   -3.2955   14.8290 C   0  0  0  0  0  0  0  0  0  0  0  0
  -22.2153   -4.7438   15.1194 C   0  0  0  0  0  0  0  0  0  0  0  0
  -22.3909   -5.7689   14.0385 C   0  0  0  0  0  0  0  0  0  0  0  0
  -22.2210  -10.7158   12.4576 C   0  0  0  0  0  0  0  0  0  0  0  0
  -23.6012  -10.1532   12.6276 C   0  0  0  0  0  0  0  0  0  0  0  0
  -23.8616   -8.7048   12.3371 C   0  0  0  0  0  0  0  0  0  0  0  0
  -22.7420   -7.8191   11.8766 C   0  0  0  0  0  0  0  0  0  0  0  0
  -21.3620   -8.3817   11.7067 C   0  0  0  0  0  0  0  0  0  0  0  0
  -21.1015   -9.8300   11.9971 C   0  0  0  0  0  0  0  0  0  0  0  0
  -24.4653   -6.1053    6.4750 C   0  0  0  0  0  0  0  0  0  0  0  0
  -25.8778   -6.4653    6.1211 O   0  0  0  0  0  0  0  0  0  0  0  0
  -23.4060   -6.0927    5.4131 C   0  0  0  0  0  0  0  0  0  0  0  0
  -22.5563   -7.3079    5.1869 C   0  0  0  0  0  0  0  0  0  0  0  0
  -21.4969   -7.2952    4.1249 C   0  0  0  0  0  0  0  0  0  0  0  0
  -21.2873   -6.0674    3.2893 C   0  0  0  0  0  0  0  0  0  0  0  0
  -22.1370   -4.8521    3.5155 C   0  0  0  0  0  0  0  0  0  0  0  0
  -23.1963   -4.8647    4.5774 C   0  0  0  0  0  0  0  0  0  0  0  0
  -20.2280   -6.0547    2.2273 Cl  0  0  0  0  0  0  0  0  0  0  0  0
 15 16  2  0  0  0
 16 17  1  0  0  0
 17 18  2  0  0  0
 18 19  1  0  0  0
 19 20  2  0  0  0
 18  1  1  0  0  0
  1  2  2  0  0  0
  2  3  1  0  0  0
  3  4  2  0  0  0
  4  5  1  0  0  0
  5  6  2  0  0  0
  6  7  1  0  0  0
  7  8  2  0  0  0
  8  9  1  0  0  0
  8 21  1  0  0  0
 21 22  2  0  0  0
 21 23  1  0  0  0
 23 24  2  0  0  0
 24 25  1  0  0  0
 25 26  2  0  0  0
 26 27  1  0  0  0
 27 28  2  0  0  0
 26 29  1  0  0  0
  7 10  1  0  0  0
  3 11  1  0  0  0
 11 12  1  0  0  0
 12 13  1  0  0  0
 13 14  1  0  0  0
 20 15  1  0  0  0
  6  1  1  0  0  0
 14  2  1  0  0  0
  9  5  1  0  0  0
 28 23  1  0  0  0
M  END
> <minimizedAffinity>
-7.76808

$$$$



 29 33  0  0  0  0  0  0  0  0999 V2000
  -22.4316   -6.6880   12.1376 C   0  0  0  0  0  0  0  0  0  0  0  0
  -22.1506   -8.1249   12.4638 C   0  0  0  0  0  0  0  0  0  0  0  0
  -21.7569   -9.0781   11.3746 C   0  0  0  0  0  0  0  0  0  0  0  0
  -21.6441   -8.5944    9.9592 N   0  0  0  0  0  0  0  0  0  0  0  0
  -21.9251   -7.1575    9.6330 C   0  0  0  0  0  0  0  0  0  0  0  0
  -22.3188   -6.2043   10.7222 C   0  0  0  0  0  0  0  0  0  0  0  0
  -22.5328   -4.8551   10.1025 C   0  0  0  0  0  0  0  0  0  0  0  0
  -22.2713   -4.9745    8.6303 C   0  0  0  0  0  0  0  0  0  0  0  0
  -21.8957   -6.3974    8.3402 S   0  0  0  0  0  0  0  0  0  0  0  0
  -22.9373   -3.6060   10.8277 N   0  0  0  0  0  0  0  0  0  0  0  0
  -21.4759  -10.5150   11.7007 C   0  0  0  0  0  0  0  0  0  0  0  0
  -21.5887  -10.9986   13.1161 C   0  0  0  0  0  0  0  0  0  0  0  0
  -21.9825  -10.0454   14.2053 C   0  0  0  0  0  0  0  0  0  0  0  0
  -22.2634   -8.6086   13.8792 C   0  0  0  0  0  0  0  0  0  0  0  0
  -24.1548   -4.4096   14.7654 C   0  0  0  0  0  0  0  0  0  0  0  0
  -24.2274   -5.4037   13.6444 C   0  0  0  0  0  0  0  0  0  0  0  0
  -22.8253   -5.7348   13.2268 C   0  0  0  0  0  0  0  0  0  0  0  0
  -21.8861   -4.9453   14.0896 S   0  0  0  0  0  0  0  0  0  0  0  0
  -22.7077   -4.1263   15.0405 C   0  0  0  0  0  0  0  0  0  0  0  0
  -22.3684   -3.8656    7.6248 C   0  0  0  0  0  0  0  0  0  0  0  0
  -21.6292   -2.5804    7.8520 O   0  0  0  0  0  0  0  0  0  0  0  0
  -23.2047   -4.0420    6.3922 C   0  0  0  0  0  0  0  0  0  0  0  0
  -22.8067   -3.3675    5.1129 C   0  0  0  0  0  0  0  0  0  0  0  0
  -23.6431   -3.5439    3.8802 C   0  0  0  0  0  0  0  0  0  0  0  0
  -24.8774   -4.3949    3.9269 C   0  0  0  0  0  0  0  0  0  0  0  0
  -25.2754   -5.0694    5.2061 C   0  0  0  0  0  0  0  0  0  0  0  0
  -24.4392   -4.8930    6.4388 C   0  0  0  0  0  0  0  0  0  0  0  0
  -26.5099   -5.9205    5.2527 F   0  0  0  0  0  0  0  0  0  0  0  0
  -25.7138   -4.5713    2.6942 F   0  0  0  0  0  0  0  0  0  0  0  0
 15 16  1  0  0  0
 16 17  2  0  0  0
 17 18  1  0  0  0
 18 19  1  0  0  0
 17  1  1  0  0  0
  1  2  2  0  0  0
  2  3  1  0  0  0
  3  4  2  0  0  0
  4  5  1  0  0  0
  5  6  2  0  0  0
  6  7  1  0  0  0
  7  8  2  0  0  0
  8  9  1  0  0  0
  8 20  1  0  0  0
 20 21  2  0  0  0
 20 22  1  0  0  0
 22 23  2  0  0  0
 23 24  1  0  0  0
 24 25  2  0  0  0
 25 26  1  0  0  0
 26 27  2  0  0  0
 26 28  1  0  0  0
 25 29  1  0  0  0
  7 10  1  0  0  0
  3 11  1  0  0  0
 11 12  1  0  0  0
 12 13  1  0  0  0
 13 14  1  0  0  0
 19 15  2  0  0  0
  6  1  1  0  0  0
 14  2  1  0  0  0
  9  5  1  0  0  0
 27 22  1  0  0  0
M  END
> <minimizedAffinity>
-8.46023

$$$$



 31 35  0  0  0  0  0  0  0  0999 V2000
  -23.3326   -4.2530    9.3925 C   0  0  0  0  0  0  0  0  0  0  0  0
  -21.9376   -3.7046    9.3357 C   0  0  0  0  0  0  0  0  0  0  0  0
  -21.2381   -3.5690    8.0157 C   0  0  0  0  0  0  0  0  0  0  0  0
  -21.9338   -3.9819    6.7524 C   0  0  0  0  0  0  0  0  0  0  0  0
  -23.3288   -4.5303    6.8093 C   0  0  0  0  0  0  0  0  0  0  0  0
  -24.0282   -4.6658    8.1294 C   0  0  0  0  0  0  0  0  0  0  0  0
  -24.0244   -4.9431    5.5461 C   0  0  0  0  0  0  0  0  0  0  0  0
  -25.3885   -5.5128    5.2916 C   0  0  0  0  0  0  0  0  0  0  0  0
  -25.5321   -5.7293    3.8143 C   0  0  0  0  0  0  0  0  0  0  0  0
  -24.2568   -5.2934    3.1557 C   0  0  0  0  0  0  0  0  0  0  0  0
  -23.3250   -4.8075    4.2260 C   0  0  0  0  0  0  0  0  0  0  0  0
  -21.9300   -4.2591    4.1692 C   0  0  0  0  0  0  0  0  0  0  0  0
  -21.2344   -3.8463    5.4325 N   0  0  0  0  0  0  0  0  0  0  0  0
  -21.2306   -4.1235    2.8492 C   0  0  0  0  0  0  0  0  0  0  0  0
  -20.5369   -2.8413    2.4962 C   0  0  0  0  0  0  0  0  0  0  0  0
  -19.8375   -2.7058    1.1762 C   0  0  0  0  0  0  0  0  0  0  0  0
  -19.8318   -3.8524    0.2091 C   0  0  0  0  0  0  0  0  0  0  0  0
  -20.5255   -5.1347    0.5622 C   0  0  0  0  0  0  0  0  0  0  0  0
  -21.2249   -5.2702    1.8821 C   0  0  0  0  0  0  0  0  0  0  0  0
  -19.1324   -3.7169   -1.1108 Cl  0  0  0  0  0  0  0  0  0  0  0  0
  -23.5067   -5.3412   11.7453 C   0  0  0  0  0  0  0  0  0  0  0  0
  -22.2820   -6.1582   11.4581 O   0  0  0  0  0  0  0  0  0  0  0  0
  -24.0320   -4.3886   10.7125 N   0  0  0  0  0  0  0  0  0  0  0  0
  -24.2061   -5.4768   13.0653 C   0  0  0  0  0  0  0  0  0  0  0  0
  -23.4927   -5.1114   14.3331 C   0  0  0  0  0  0  0  0  0  0  0  0
  -23.9645   -0.9878   16.0722 C   0  0  0  0  0  0  0  0  0  0  0  0
  -24.3655   -2.1904   16.8741 C   0  0  0  0  0  0  0  0  0  0  0  0
  -24.2083   -3.5649   16.2944 C   0  0  0  0  0  0  0  0  0  0  0  0
  -23.6500   -3.7369   14.9128 C   0  0  0  0  0  0  0  0  0  0  0  0
  -23.2490   -2.5343   14.1109 C   0  0  0  0  0  0  0  0  0  0  0  0
  -23.4063   -1.1598   14.6906 C   0  0  0  0  0  0  0  0  0  0  0  0
 26 27  2  0  0  0
 27 28  1  0  0  0
 28 29  2  0  0  0
 29 30  1  0  0  0
 30 31  2  0  0  0
 29 25  1  0  0  0
 25 24  1  0  0  0
 24 21  1  0  0  0
 21 22  2  0  0  0
 21 23  1  0  0  0
 23  1  1  0  0  0
  1  2  2  0  0  0
  2  3  1  0  0  0
  3  4  2  0  0  0
  4  5  1  0  0  0
  5  6  2  0  0  0
  5  7  1  0  0  0
  7  8  1  0  0  0
  8  9  2  0  0  0
  9 10  1  0  0  0
 11 10  1  0  0  0
 11 12  1  0  0  0
 12 13  1  0  0  0
 12 14  1  0  0  0
 14 15  2  0  0  0
 15 16  1  0  0  0
 16 17  2  0  0  0
 17 18  1  0  0  0
 18 19  2  0  0  0
 17 20  1  0  0  0
 31 26  1  0  0  0
  6  1  1  0  0  0
 13  4  1  0  0  0
 11  7  1  0  0  0
 19 14  1  0  0  0
M  END
> <minimizedAffinity>
-11.58227

$$$$



 30 34  0  0  0  0  0  0  0  0999 V2000
  -22.2907   -8.9912    8.1092 C   0  0  0  0  0  0  0  0  0  0  0  0
  -21.5797   -9.7404    7.0215 C   0  0  0  0  0  0  0  0  0  0  0  0
  -21.1790   -9.0322    5.7614 C   0  0  0  0  0  0  0  0  0  0  0  0
  -21.4894   -7.5748    5.5889 C   0  0  0  0  0  0  0  0  0  0  0  0
  -22.2005   -6.8256    6.6767 C   0  0  0  0  0  0  0  0  0  0  0  0
  -22.6011   -7.5338    7.9369 C   0  0  0  0  0  0  0  0  0  0  0  0
  -22.5108   -5.3682    6.5042 C   0  0  0  0  0  0  0  0  0  0  0  0
  -23.1955   -4.3755    7.3962 C   0  0  0  0  0  0  0  0  0  0  0  0
  -23.2179   -3.0537    6.6874 C   0  0  0  0  0  0  0  0  0  0  0  0
  -22.5472   -3.2296    5.3573 C   0  0  0  0  0  0  0  0  0  0  0  0
  -22.1101   -4.6601    5.2441 C   0  0  0  0  0  0  0  0  0  0  0  0
  -21.3991   -5.4093    4.1564 C   0  0  0  0  0  0  0  0  0  0  0  0
  -21.0888   -6.8666    4.3288 N   0  0  0  0  0  0  0  0  0  0  0  0
  -20.9985   -4.7011    2.8962 C   0  0  0  0  0  0  0  0  0  0  0  0
  -21.1836   -5.3721    1.5675 C   0  0  0  0  0  0  0  0  0  0  0  0
  -20.7829   -4.6639    0.3074 C   0  0  0  0  0  0  0  0  0  0  0  0
  -20.1971   -3.2848    0.3759 C   0  0  0  0  0  0  0  0  0  0  0  0
  -20.0119   -2.6138    1.7047 C   0  0  0  0  0  0  0  0  0  0  0  0
  -20.4126   -3.3219    2.9648 C   0  0  0  0  0  0  0  0  0  0  0  0
  -19.4261   -1.2346    1.7732 Cl  0  0  0  0  0  0  0  0  0  0  0  0
  -22.1388   -9.2509   10.6898 C   0  0  0  0  0  0  0  0  0  0  0  0
  -21.1856   -8.0943   10.7502 O   0  0  0  0  0  0  0  0  0  0  0  0
  -22.6914   -9.6993    9.3694 N   0  0  0  0  0  0  0  0  0  0  0  0
  -20.0454  -10.4960   12.4413 C   0  0  0  0  0  0  0  0  0  0  0  0
  -21.4928  -10.5816   12.8257 C   0  0  0  0  0  0  0  0  0  0  0  0
  -21.8934  -11.2898   14.0859 C   0  0  0  0  0  0  0  0  0  0  0  0
  -23.3408  -11.3753   14.4704 C   0  0  0  0  0  0  0  0  0  0  0  0
  -24.3875  -10.7528   13.5947 C   0  0  0  0  0  0  0  0  0  0  0  0
  -23.9868  -10.0446   12.3345 C   0  0  0  0  0  0  0  0  0  0  0  0
  -22.5395   -9.9590   11.9500 C   0  0  0  0  0  0  0  0  0  0  0  0
 24 25  1  0  0  0
 25 26  2  0  0  0
 26 27  1  0  0  0
 27 28  2  0  0  0
 28 29  1  0  0  0
 29 30  2  0  0  0
 30 21  1  0  0  0
 21 22  2  0  0  0
 21 23  1  0  0  0
 23  1  1  0  0  0
  1  2  2  0  0  0
  2  3  1  0  0  0
  3  4  2  0  0  0
  4  5  1  0  0  0
  5  6  2  0  0  0
  5  7  1  0  0  0
  7  8  1  0  0  0
  8  9  2  0  0  0
  9 10  1  0  0  0
 11 10  1  0  0  0
 11 12  1  0  0  0
 12 13  1  0  0  0
 12 14  1  0  0  0
 14 15  2  0  0  0
 15 16  1  0  0  0
 16 17  2  0  0  0
 17 18  1  0  0  0
 18 19  2  0  0  0
 18 20  1  0  0  0
 30 25  1  0  0  0
  6  1  1  0  0  0
 13  4  1  0  0  0
 11  7  1  0  0  0
 19 14  1  0  0  0
M  END
> <minimizedAffinity>
-9.38000

$$$$



 31 35  0  0  0  0  0  0  0  0999 V2000
  -21.9379   -6.3264    4.7050 C   0  0  0  0  0  0  0  0  0  0  0  0
  -21.8907   -7.8217    4.5964 C   0  0  0  0  0  0  0  0  0  0  0  0
  -22.0019   -8.6672    5.8304 C   0  0  0  0  0  0  0  0  0  0  0  0
  -22.1604   -8.0173    7.1731 C   0  0  0  0  0  0  0  0  0  0  0  0
  -22.2076   -6.5220    7.2816 C   0  0  0  0  0  0  0  0  0  0  0  0
  -22.0963   -5.6765    6.0476 C   0  0  0  0  0  0  0  0  0  0  0  0
  -22.3661   -5.8721    8.6243 C   0  0  0  0  0  0  0  0  0  0  0  0
  -22.4446   -4.4330    9.0397 C   0  0  0  0  0  0  0  0  0  0  0  0
  -22.6044   -4.3890   10.5305 C   0  0  0  0  0  0  0  0  0  0  0  0
  -22.6247   -5.8010   11.0364 C   0  0  0  0  0  0  0  0  0  0  0  0
  -22.4774   -6.7177    9.8583 C   0  0  0  0  0  0  0  0  0  0  0  0
  -22.4302   -8.2130    9.7497 C   0  0  0  0  0  0  0  0  0  0  0  0
  -22.2717   -8.8628    8.4070 N   0  0  0  0  0  0  0  0  0  0  0  0
  -22.5414   -9.0585   10.9837 C   0  0  0  0  0  0  0  0  0  0  0  0
  -23.8917   -9.3883   11.5476 C   0  0  0  0  0  0  0  0  0  0  0  0
  -24.0029  -10.2339   12.7816 C   0  0  0  0  0  0  0  0  0  0  0  0
  -22.7639  -10.7495   13.4517 C   0  0  0  0  0  0  0  0  0  0  0  0
  -21.4136  -10.4196   12.8877 C   0  0  0  0  0  0  0  0  0  0  0  0
  -21.3024   -9.5741   11.6538 C   0  0  0  0  0  0  0  0  0  0  0  0
  -22.8751  -11.5950   14.6856 S   0  0  0  0  0  0  0  0  0  0  0  0
  -21.6353  -12.0837   15.3743 C   0  0  0  0  0  0  0  0  0  0  0  0
  -20.5239   -5.4006    2.7318 C   0  0  0  0  0  0  0  0  0  0  0  0
  -19.3324   -6.1658    3.2265 O   0  0  0  0  0  0  0  0  0  0  0  0
  -21.8266   -5.4809    3.4710 N   0  0  0  0  0  0  0  0  0  0  0  0
  -19.6503   -2.5387    2.9481 C   0  0  0  0  0  0  0  0  0  0  0  0
  -19.9758   -3.1241    1.6060 C   0  0  0  0  0  0  0  0  0  0  0  0
  -19.8645   -2.2786    0.3720 C   0  0  0  0  0  0  0  0  0  0  0  0
  -20.1900   -2.8640   -0.9702 C   0  0  0  0  0  0  0  0  0  0  0  0
  -20.6268   -4.2949   -1.0783 C   0  0  0  0  0  0  0  0  0  0  0  0
  -20.7381   -5.1404    0.1557 C   0  0  0  0  0  0  0  0  0  0  0  0
  -20.4126   -4.5551    1.4978 C   0  0  0  0  0  0  0  0  0  0  0  0
 25 26  1  0  0  0
 26 27  2  0  0  0
 27 28  1  0  0  0
 28 29  2  0  0  0
 29 30  1  0  0  0
 30 31  2  0  0  0
 31 22  1  0  0  0
 22 23  2  0  0  0
 22 24  1  0  0  0
 24  1  1  0  0  0
  1  2  2  0  0  0
  2  3  1  0  0  0
  3  4  2  0  0  0
  4  5  1  0  0  0
  5  6  2  0  0  0
  5  7  1  0  0  0
  7  8  1  0  0  0
  8  9  2  0  0  0
  9 10  1  0  0  0
 11 10  1  0  0  0
 11 12  1  0  0  0
 12 13  1  0  0  0
 12 14  1  0  0  0
 14 15  2  0  0  0
 15 16  1  0  0  0
 16 17  2  0  0  0
 17 18  1  0  0  0
 18 19  2  0  0  0
 17 20  1  0  0  0
 20 21  1  0  0  0
 31 26  1  0  0  0
  6  1  1  0  0  0
 13  4  1  0  0  0
 11  7  1  0  0  0
 19 14  1  0  0  0
M  END
> <minimizedAffinity>
-7.52819

$$$$



 30 34  0  0  0  0  0  0  0  0999 V2000
  -21.7870   -6.5430    6.3301 C   0  0  0  0  0  0  0  0  0  0  0  0
  -22.2102   -7.9547    6.0505 C   0  0  0  0  0  0  0  0  0  0  0  0
  -22.4586   -8.9022    7.1865 C   0  0  0  0  0  0  0  0  0  0  0  0
  -22.2839   -8.4380    8.6022 C   0  0  0  0  0  0  0  0  0  0  0  0
  -21.8608   -7.0263    8.8818 C   0  0  0  0  0  0  0  0  0  0  0  0
  -21.6123   -6.0788    7.7457 C   0  0  0  0  0  0  0  0  0  0  0  0
  -21.6861   -6.5622   10.2974 C   0  0  0  0  0  0  0  0  0  0  0  0
  -21.2810   -5.2394   10.8772 C   0  0  0  0  0  0  0  0  0  0  0  0
  -21.2792   -5.3694   12.3716 C   0  0  0  0  0  0  0  0  0  0  0  0
  -21.6831   -6.7725   12.7154 C   0  0  0  0  0  0  0  0  0  0  0  0
  -21.9346   -7.5097   11.4334 C   0  0  0  0  0  0  0  0  0  0  0  0
  -22.3577   -8.9214   11.1538 C   0  0  0  0  0  0  0  0  0  0  0  0
  -22.5324   -9.3855    9.7382 N   0  0  0  0  0  0  0  0  0  0  0  0
  -22.6062   -9.8689   12.2898 C   0  0  0  0  0  0  0  0  0  0  0  0
  -24.0076  -10.1272   12.7582 C   0  0  0  0  0  0  0  0  0  0  0  0
  -24.2559  -11.0747   13.8942 C   0  0  0  0  0  0  0  0  0  0  0  0
  -23.1030  -11.7640   14.5618 C   0  0  0  0  0  0  0  0  0  0  0  0
  -21.7016  -11.5056   14.0934 C   0  0  0  0  0  0  0  0  0  0  0  0
  -21.4532  -10.5581   12.9574 C   0  0  0  0  0  0  0  0  0  0  0  0
  -20.0518  -10.2998   12.4890 Cl  0  0  0  0  0  0  0  0  0  0  0  0
  -21.0514   -6.1175    3.8750 C   0  0  0  0  0  0  0  0  0  0  0  0
  -20.8128   -7.5870    3.6917 O   0  0  0  0  0  0  0  0  0  0  0  0
  -21.5385   -5.5955    5.1941 N   0  0  0  0  0  0  0  0  0  0  0  0
  -19.3899   -1.5102    2.1394 C   0  0  0  0  0  0  0  0  0  0  0  0
  -19.9722   -2.8663    1.8711 C   0  0  0  0  0  0  0  0  0  0  0  0
  -20.3060   -3.2749    0.4670 C   0  0  0  0  0  0  0  0  0  0  0  0
  -20.8883   -4.6310    0.1989 C   0  0  0  0  0  0  0  0  0  0  0  0
  -21.1367   -5.5785    1.3349 C   0  0  0  0  0  0  0  0  0  0  0  0
  -20.8030   -5.1700    2.7390 C   0  0  0  0  0  0  0  0  0  0  0  0
  -20.2207   -3.8138    3.0071 C   0  0  0  0  0  0  0  0  0  0  0  0
 24 25  1  0  0  0
 25 26  2  0  0  0
 26 27  1  0  0  0
 27 28  2  0  0  0
 28 29  1  0  0  0
 29 30  2  0  0  0
 29 21  1  0  0  0
 21 22  2  0  0  0
 21 23  1  0  0  0
 23  1  1  0  0  0
  1  2  2  0  0  0
  2  3  1  0  0  0
  3  4  2  0  0  0
  4  5  1  0  0  0
  5  6  2  0  0  0
  5  7  1  0  0  0
  7  8  1  0  0  0
  8  9  2  0  0  0
  9 10  1  0  0  0
 11 10  1  0  0  0
 11 12  1  0  0  0
 12 13  1  0  0  0
 12 14  1  0  0  0
 14 15  2  0  0  0
 15 16  1  0  0  0
 16 17  2  0  0  0
 17 18  1  0  0  0
 18 19  2  0  0  0
 19 20  1  0  0  0
 30 25  1  0  0  0
  6  1  1  0  0  0
 13  4  1  0  0  0
 11  7  1  0  0  0
 19 14  1  0  0  0
M  END
> <minimizedAffinity>
-9.14007

$$$$



 27 30  0  0  0  0  0  0  0  0999 V2000
  -21.9986   -6.9242    7.8203 C   0  0  0  0  0  0  0  0  0  0  0  0
  -21.6088   -6.0878    6.6377 C   0  0  0  0  0  0  0  0  0  0  0  0
  -21.4927   -6.7159    5.2805 C   0  0  0  0  0  0  0  0  0  0  0  0
  -21.7663   -8.1803    5.1060 C   0  0  0  0  0  0  0  0  0  0  0  0
  -22.1560   -9.0167    6.2886 C   0  0  0  0  0  0  0  0  0  0  0  0
  -22.2722   -8.3886    7.6458 C   0  0  0  0  0  0  0  0  0  0  0  0
  -22.6619   -9.2250    8.8284 O   0  0  0  0  0  0  0  0  0  0  0  0
  -21.1029   -5.8795    4.0979 C   0  0  0  0  0  0  0  0  0  0  0  0
  -20.7683   -4.4176    4.1238 N   0  0  0  0  0  0  0  0  0  0  0  0
  -20.4379   -3.9928    2.7236 C   0  0  0  0  0  0  0  0  0  0  0  0
  -20.0352   -2.6688    2.1451 C   0  0  0  0  0  0  0  0  0  0  0  0
  -19.7629   -2.5442    0.6753 C   0  0  0  0  0  0  0  0  0  0  0  0
  -19.8933   -3.7437   -0.2159 C   0  0  0  0  0  0  0  0  0  0  0  0
  -20.2960   -5.0677    0.3626 C   0  0  0  0  0  0  0  0  0  0  0  0
  -20.5683   -5.1922    1.8324 C   0  0  0  0  0  0  0  0  0  0  0  0
  -20.9793   -6.3583    2.6817 S   0  0  0  0  0  0  0  0  0  0  0  0
  -22.1147   -6.2960    9.1776 C   0  0  0  0  0  0  0  0  0  0  0  0
  -23.4679   -6.0202    9.7630 N   0  0  0  0  0  0  0  0  0  0  0  0
  -24.6820   -6.0281    8.8822 C   0  0  0  0  0  0  0  0  0  0  0  0
  -25.0164   -4.8223    8.0551 C   0  0  0  0  0  0  0  0  0  0  0  0
  -25.6286   -5.9550    4.3011 C   0  0  0  0  0  0  0  0  0  0  0  0
  -24.7152   -5.0167    3.5694 C   0  0  0  0  0  0  0  0  0  0  0  0
  -23.9022   -4.0137    4.3328 C   0  0  0  0  0  0  0  0  0  0  0  0
  -24.0026   -3.9489    5.8280 C   0  0  0  0  0  0  0  0  0  0  0  0
  -24.9160   -4.8871    6.5598 C   0  0  0  0  0  0  0  0  0  0  0  0
  -25.7290   -5.8902    5.7963 C   0  0  0  0  0  0  0  0  0  0  0  0
  -23.1896   -2.9459    6.5916 Cl  0  0  0  0  0  0  0  0  0  0  0  0
 21 22  2  0  0  0
 22 23  1  0  0  0
 23 24  2  0  0  0
 24 25  1  0  0  0
 25 26  2  0  0  0
 25 20  1  0  0  0
 20 19  1  0  0  0
 19 18  1  0  0  0
 18 17  1  0  0  0
 17  1  1  0  0  0
  1  2  2  0  0  0
  2  3  1  0  0  0
  3  4  2  0  0  0
  4  5  1  0  0  0
  5  6  2  0  0  0
  6  7  1  0  0  0
  3  8  1  0  0  0
  8  9  2  0  0  0
  9 10  1  0  0  0
 10 11  2  0  0  0
 11 12  1  0  0  0
 12 13  2  0  0  0
 13 14  1  0  0  0
 14 15  2  0  0  0
 15 16  1  0  0  0
 24 27  1  0  0  0
 26 21  1  0  0  0
  6  1  1  0  0  0
 16  8  1  0  0  0
 15 10  1  0  0  0
M  END
> <minimizedAffinity>
-9.30214

$$$$



 27 31  0  0  0  0  0  0  0  0999 V2000
  -23.4195   -4.2566    9.4367 C   0  0  0  0  0  0  0  0  0  0  0  0
  -22.0100   -3.7509    9.3496 C   0  0  0  0  0  0  0  0  0  0  0  0
  -21.3136   -3.6958    8.0222 C   0  0  0  0  0  0  0  0  0  0  0  0
  -22.0268   -4.1464    6.7818 C   0  0  0  0  0  0  0  0  0  0  0  0
  -23.4363   -4.6521    6.8689 C   0  0  0  0  0  0  0  0  0  0  0  0
  -24.1327   -4.7072    8.1964 C   0  0  0  0  0  0  0  0  0  0  0  0
  -24.1495   -5.1026    5.6286 C   0  0  0  0  0  0  0  0  0  0  0  0
  -25.5302   -5.6447    5.4056 C   0  0  0  0  0  0  0  0  0  0  0  0
  -25.6871   -5.9247    3.9404 C   0  0  0  0  0  0  0  0  0  0  0  0
  -24.4034   -5.5556    3.2578 C   0  0  0  0  0  0  0  0  0  0  0  0
  -23.4531   -5.0475    4.3012 C   0  0  0  0  0  0  0  0  0  0  0  0
  -22.0436   -4.5419    4.2141 C   0  0  0  0  0  0  0  0  0  0  0  0
  -21.3305   -4.0913    5.4544 N   0  0  0  0  0  0  0  0  0  0  0  0
  -21.3472   -4.4868    2.8867 C   0  0  0  0  0  0  0  0  0  0  0  0
  -21.2643   -3.1905    2.1365 C   0  0  0  0  0  0  0  0  0  0  0  0
  -20.5679   -3.1355    0.8090 C   0  0  0  0  0  0  0  0  0  0  0  0
  -19.9544   -4.3767    0.2318 C   0  0  0  0  0  0  0  0  0  0  0  0
  -20.0374   -5.6729    0.9821 C   0  0  0  0  0  0  0  0  0  0  0  0
  -20.7337   -5.7280    2.3095 C   0  0  0  0  0  0  0  0  0  0  0  0
  -20.8167   -7.0242    3.0598 Cl  0  0  0  0  0  0  0  0  0  0  0  0
  -24.1159   -4.3117   10.7641 N   0  0  0  0  0  0  0  0  0  0  0  0
  -22.0093   -2.8738   14.4716 C   0  0  0  0  0  0  0  0  0  0  0  0
  -21.6243   -4.1838   13.8505 C   0  0  0  0  0  0  0  0  0  0  0  0
  -22.3265   -4.6631   12.6147 C   0  0  0  0  0  0  0  0  0  0  0  0
  -23.4137   -3.8324   11.9999 C   0  0  0  0  0  0  0  0  0  0  0  0
  -23.7986   -2.5224   12.6210 C   0  0  0  0  0  0  0  0  0  0  0  0
  -23.0965   -2.0431   13.8567 C   0  0  0  0  0  0  0  0  0  0  0  0
 22 23  2  0  0  0
 23 24  1  0  0  0
 24 25  2  0  0  0
 25 26  1  0  0  0
 26 27  2  0  0  0
 25 21  1  0  0  0
 21  1  1  0  0  0
  1  2  2  0  0  0
  2  3  1  0  0  0
  3  4  2  0  0  0
  4  5  1  0  0  0
  5  6  2  0  0  0
  5  7  1  0  0  0
  7  8  1  0  0  0
  8  9  2  0  0  0
  9 10  1  0  0  0
 11 10  1  0  0  0
 11 12  1  0  0  0
 12 13  1  0  0  0
 12 14  1  0  0  0
 14 15  2  0  0  0
 15 16  1  0  0  0
 16 17  2  0  0  0
 17 18  1  0  0  0
 18 19  2  0  0  0
 19 20  1  0  0  0
 27 22  1  0  0  0
  6  1  1  0  0  0
 13  4  1  0  0  0
 11  7  1  0  0  0
 19 14  1  0  0  0
M  END
> <minimizedAffinity>
-10.75410

$$$$



 31 35  0  0  0  0  0  0  0  0999 V2000
  -23.3580   -4.5924   10.1684 C   0  0  0  0  0  0  0  0  0  0  0  0
  -21.9102   -4.2057   10.1028 C   0  0  0  0  0  0  0  0  0  0  0  0
  -21.2176   -4.1146    8.7754 C   0  0  0  0  0  0  0  0  0  0  0  0
  -21.9728   -4.4103    7.5135 C   0  0  0  0  0  0  0  0  0  0  0  0
  -23.4207   -4.7970    7.5792 C   0  0  0  0  0  0  0  0  0  0  0  0
  -24.1133   -4.8880    8.9067 C   0  0  0  0  0  0  0  0  0  0  0  0
  -24.1759   -5.0926    6.3173 C   0  0  0  0  0  0  0  0  0  0  0  0
  -25.5996   -5.4954    6.0707 C   0  0  0  0  0  0  0  0  0  0  0  0
  -25.7869   -5.6533    4.5909 C   0  0  0  0  0  0  0  0  0  0  0  0
  -24.4790   -5.3481    3.9229 C   0  0  0  0  0  0  0  0  0  0  0  0
  -23.4833   -5.0016    4.9899 C   0  0  0  0  0  0  0  0  0  0  0  0
  -22.0355   -4.6149    4.9243 C   0  0  0  0  0  0  0  0  0  0  0  0
  -21.2803   -4.3192    6.1862 N   0  0  0  0  0  0  0  0  0  0  0  0
  -21.3429   -4.5238    3.5969 C   0  0  0  0  0  0  0  0  0  0  0  0
  -21.1266   -3.1859    2.9541 C   0  0  0  0  0  0  0  0  0  0  0  0
  -20.4340   -3.0950    1.6266 C   0  0  0  0  0  0  0  0  0  0  0  0
  -19.9577   -4.3418    0.9421 C   0  0  0  0  0  0  0  0  0  0  0  0
  -20.1741   -5.6797    1.5850 C   0  0  0  0  0  0  0  0  0  0  0  0
  -20.8666   -5.7707    2.9123 C   0  0  0  0  0  0  0  0  0  0  0  0
  -21.0830   -7.1085    3.5553 Cl  0  0  0  0  0  0  0  0  0  0  0  0
  -23.9289   -3.5614   12.4838 C   0  0  0  0  0  0  0  0  0  0  0  0
  -23.1146   -2.3483   12.1445 O   0  0  0  0  0  0  0  0  0  0  0  0
  -24.0506   -4.6834   11.4958 N   0  0  0  0  0  0  0  0  0  0  0  0
  -24.6215   -3.6525   13.8113 C   0  0  0  0  0  0  0  0  0  0  0  0
  -23.8834   -3.2986   15.0682 C   0  0  0  0  0  0  0  0  0  0  0  0
  -24.5263    0.7140   17.0012 C   0  0  0  0  0  0  0  0  0  0  0  0
  -25.2425   -0.4949   17.5263 C   0  0  0  0  0  0  0  0  0  0  0  0
  -25.0282   -1.8324   16.8820 C   0  0  0  0  0  0  0  0  0  0  0  0
  -24.0977   -1.9611   15.7125 C   0  0  0  0  0  0  0  0  0  0  0  0
  -23.3816   -0.7522   15.1874 C   0  0  0  0  0  0  0  0  0  0  0  0
  -23.5959    0.5853   15.8317 C   0  0  0  0  0  0  0  0  0  0  0  0
 26 27  2  0  0  0
 27 28  1  0  0  0
 28 29  2  0  0  0
 29 30  1  0  0  0
 30 31  2  0  0  0
 29 25  1  0  0  0
 25 24  1  0  0  0
 24 21  1  0  0  0
 21 22  2  0  0  0
 21 23  1  0  0  0
 23  1  1  0  0  0
  1  2  2  0  0  0
  2  3  1  0  0  0
  3  4  2  0  0  0
  4  5  1  0  0  0
  5  6  2  0  0  0
  5  7  1  0  0  0
  7  8  1  0  0  0
  8  9  2  0  0  0
  9 10  1  0  0  0
 11 10  1  0  0  0
 11 12  1  0  0  0
 12 13  1  0  0  0
 12 14  1  0  0  0
 14 15  2  0  0  0
 15 16  1  0  0  0
 16 17  2  0  0  0
 17 18  1  0  0  0
 18 19  2  0  0  0
 19 20  1  0  0  0
 31 26  1  0  0  0
  6  1  1  0  0  0
 13  4  1  0  0  0
 11  7  1  0  0  0
 19 14  1  0  0  0
M  END
> <minimizedAffinity>
-10.86071

$$$$



 31 35  0  0  0  0  0  0  0  0999 V2000
  -23.3255   -4.2525    9.2678 C   0  0  0  0  0  0  0  0  0  0  0  0
  -21.9346   -3.6928    9.2224 C   0  0  0  0  0  0  0  0  0  0  0  0
  -21.2281   -3.5452    7.9075 C   0  0  0  0  0  0  0  0  0  0  0  0
  -21.9125   -3.9572    6.6378 C   0  0  0  0  0  0  0  0  0  0  0  0
  -23.3035   -4.5169    6.6833 C   0  0  0  0  0  0  0  0  0  0  0  0
  -24.0100   -4.6646    7.9983 C   0  0  0  0  0  0  0  0  0  0  0  0
  -23.9879   -4.9290    5.4137 C   0  0  0  0  0  0  0  0  0  0  0  0
  -25.3458   -5.5082    5.1479 C   0  0  0  0  0  0  0  0  0  0  0  0
  -25.4785   -5.7185    3.6686 C   0  0  0  0  0  0  0  0  0  0  0  0
  -24.2026   -5.2692    3.0202 C   0  0  0  0  0  0  0  0  0  0  0  0
  -23.2814   -4.7813    4.0988 C   0  0  0  0  0  0  0  0  0  0  0  0
  -21.8905   -4.2216    4.0534 C   0  0  0  0  0  0  0  0  0  0  0  0
  -21.2061   -3.8096    5.3230 N   0  0  0  0  0  0  0  0  0  0  0  0
  -21.1839   -4.0739    2.7385 C   0  0  0  0  0  0  0  0  0  0  0  0
  -20.4864   -2.7894    2.4020 C   0  0  0  0  0  0  0  0  0  0  0  0
  -19.7799   -2.6418    1.0870 C   0  0  0  0  0  0  0  0  0  0  0  0
  -19.7709   -3.7787    0.1086 C   0  0  0  0  0  0  0  0  0  0  0  0
  -20.4685   -5.0633    0.4452 C   0  0  0  0  0  0  0  0  0  0  0  0
  -21.1750   -5.2109    1.7600 C   0  0  0  0  0  0  0  0  0  0  0  0
  -19.0644   -3.6311   -1.2063 F   0  0  0  0  0  0  0  0  0  0  0  0
  -23.4757   -5.3133   11.6347 C   0  0  0  0  0  0  0  0  0  0  0  0
  -22.2128   -6.0788   11.3718 O   0  0  0  0  0  0  0  0  0  0  0  0
  -24.0321   -4.4002   10.5827 N   0  0  0  0  0  0  0  0  0  0  0  0
  -24.1822   -5.4610   12.9496 C   0  0  0  0  0  0  0  0  0  0  0  0
  -23.4704   -5.1225   14.2257 C   0  0  0  0  0  0  0  0  0  0  0  0
  -23.9582   -1.0428   16.0608 C   0  0  0  0  0  0  0  0  0  0  0  0
  -23.4064   -1.1797   14.6728 C   0  0  0  0  0  0  0  0  0  0  0  0
  -23.2438   -2.5396   14.0611 C   0  0  0  0  0  0  0  0  0  0  0  0
  -23.6330   -3.7626   14.8374 C   0  0  0  0  0  0  0  0  0  0  0  0
  -24.1848   -3.6257   16.2255 C   0  0  0  0  0  0  0  0  0  0  0  0
  -24.3475   -2.2658   16.8372 C   0  0  0  0  0  0  0  0  0  0  0  0
 26 27  2  0  0  0
 27 28  1  0  0  0
 28 29  2  0  0  0
 29 30  1  0  0  0
 30 31  2  0  0  0
 29 25  1  0  0  0
 25 24  1  0  0  0
 24 21  1  0  0  0
 21 22  2  0  0  0
 21 23  1  0  0  0
 23  1  1  0  0  0
  1  2  2  0  0  0
  2  3  1  0  0  0
  3  4  2  0  0  0
  4  5  1  0  0  0
  5  6  2  0  0  0
  5  7  1  0  0  0
  7  8  1  0  0  0
  8  9  2  0  0  0
  9 10  1  0  0  0
 11 10  1  0  0  0
 11 12  1  0  0  0
 12 13  1  0  0  0
 12 14  1  0  0  0
 14 15  2  0  0  0
 15 16  1  0  0  0
 16 17  2  0  0  0
 17 18  1  0  0  0
 18 19  2  0  0  0
 17 20  1  0  0  0
 31 26  1  0  0  0
  6  1  1  0  0  0
 13  4  1  0  0  0
 11  7  1  0  0  0
 19 14  1  0  0  0
M  END
> <minimizedAffinity>
-11.61273

$$$$



 33 38  0  0  0  0  0  0  0  0999 V2000
  -22.5807   -4.9031   12.6538 C   0  0  0  0  0  0  0  0  0  0  0  0
  -21.2016   -5.4462   12.4237 C   0  0  0  0  0  0  0  0  0  0  0  0
  -20.7951   -5.9057   11.0549 C   0  0  0  0  0  0  0  0  0  0  0  0
  -21.7679   -5.8219    9.9161 C   0  0  0  0  0  0  0  0  0  0  0  0
  -23.1471   -5.2788   10.1462 C   0  0  0  0  0  0  0  0  0  0  0  0
  -23.5535   -4.8193   11.5151 C   0  0  0  0  0  0  0  0  0  0  0  0
  -24.1198   -5.1951    9.0074 C   0  0  0  0  0  0  0  0  0  0  0  0
  -25.5368   -4.7089    8.9315 C   0  0  0  0  0  0  0  0  0  0  0  0
  -26.0060   -4.8678    7.5157 C   0  0  0  0  0  0  0  0  0  0  0  0
  -24.8791   -5.4523    6.7166 C   0  0  0  0  0  0  0  0  0  0  0  0
  -23.7133   -5.6545    7.6386 C   0  0  0  0  0  0  0  0  0  0  0  0
  -22.3342   -6.1977    7.4085 C   0  0  0  0  0  0  0  0  0  0  0  0
  -21.3615   -6.2814    8.5473 N   0  0  0  0  0  0  0  0  0  0  0  0
  -21.9277   -6.6571    6.0397 C   0  0  0  0  0  0  0  0  0  0  0  0
  -21.8735   -8.1230    5.7259 C   0  0  0  0  0  0  0  0  0  0  0  0
  -21.4671   -8.5824    4.3571 C   0  0  0  0  0  0  0  0  0  0  0  0
  -21.1148   -7.5761    3.3020 C   0  0  0  0  0  0  0  0  0  0  0  0
  -21.1690   -6.1103    3.6158 C   0  0  0  0  0  0  0  0  0  0  0  0
  -21.5754   -5.6507    4.9846 C   0  0  0  0  0  0  0  0  0  0  0  0
  -21.6296   -4.1849    5.2984 C   0  0  0  0  0  0  0  0  0  0  0  0
  -21.2773   -3.1786    4.2433 C   0  0  0  0  0  0  0  0  0  0  0  0
  -20.8709   -3.6380    2.8745 C   0  0  0  0  0  0  0  0  0  0  0  0
  -20.8167   -5.1039    2.5607 C   0  0  0  0  0  0  0  0  0  0  0  0
  -23.6150   -3.0936   14.2050 C   0  0  0  0  0  0  0  0  0  0  0  0
  -23.8364   -2.2030   13.0185 O   0  0  0  0  0  0  0  0  0  0  0  0
  -22.9872   -4.4436   14.0226 N   0  0  0  0  0  0  0  0  0  0  0  0
  -25.0791    0.7141   17.4233 C   0  0  0  0  0  0  0  0  0  0  0  0
  -24.7535   -0.7303   17.1830 C   0  0  0  0  0  0  0  0  0  0  0  0
  -24.8344   -1.7152   18.3115 C   0  0  0  0  0  0  0  0  0  0  0  0
  -24.5088   -3.1595   18.0711 C   0  0  0  0  0  0  0  0  0  0  0  0
  -24.1024   -3.6190   16.7022 C   0  0  0  0  0  0  0  0  0  0  0  0
  -24.0215   -2.6342   15.5738 C   0  0  0  0  0  0  0  0  0  0  0  0
  -24.3471   -1.1897   15.8142 C   0  0  0  0  0  0  0  0  0  0  0  0
 27 28  1  0  0  0
 28 29  2  0  0  0
 29 30  1  0  0  0
 30 31  2  0  0  0
 31 32  1  0  0  0
 32 33  2  0  0  0
 32 24  1  0  0  0
 24 25  2  0  0  0
 24 26  1  0  0  0
 26  1  1  0  0  0
  1  2  2  0  0  0
  2  3  1  0  0  0
  3  4  2  0  0  0
  4  5  1  0  0  0
  5  6  2  0  0  0
  5  7  1  0  0  0
  7  8  1  0  0  0
  8  9  2  0  0  0
  9 10  1  0  0  0
 11 10  1  0  0  0
 11 12  1  0  0  0
 12 13  1  0  0  0
 12 14  1  0  0  0
 14 15  2  0  0  0
 15 16  1  0  0  0
 16 17  2  0  0  0
 17 18  1  0  0  0
 18 19  2  0  0  0
 19 20  1  0  0  0
 20 21  2  0  0  0
 21 22  1  0  0  0
 22 23  2  0  0  0
 33 28  1  0  0  0
  6  1  1  0  0  0
 13  4  1  0  0  0
 11  7  1  0  0  0
 19 14  1  0  0  0
 23 18  1  0  0  0
M  END
> <minimizedAffinity>
-7.93345

$$$$



 26 29  0  0  0  0  0  0  0  0999 V2000
  -21.9576   -4.4087    8.6928 C   0  0  0  0  0  0  0  0  0  0  0  0
  -22.1042   -4.0860    7.2352 C   0  0  0  0  0  0  0  0  0  0  0  0
  -23.1803   -3.2387    6.6237 C   0  0  0  0  0  0  0  0  0  0  0  0
  -22.9416   -3.1830    5.1438 C   0  0  0  0  0  0  0  0  0  0  0  0
  -21.7179   -3.9958    4.8408 C   0  0  0  0  0  0  0  0  0  0  0  0
  -21.2004   -4.5539    6.1334 O   0  0  0  0  0  0  0  0  0  0  0  0
  -21.1173   -4.2125    3.4835 C   0  0  0  0  0  0  0  0  0  0  0  0
  -20.7292   -5.5941    3.0470 C   0  0  0  0  0  0  0  0  0  0  0  0
  -20.1285   -5.8108    1.6897 C   0  0  0  0  0  0  0  0  0  0  0  0
  -19.9160   -4.6459    0.7689 C   0  0  0  0  0  0  0  0  0  0  0  0
  -20.3041   -3.2644    1.2054 C   0  0  0  0  0  0  0  0  0  0  0  0
  -20.9047   -3.0476    2.5628 C   0  0  0  0  0  0  0  0  0  0  0  0
  -20.0915   -2.0995    0.2847 Cl  0  0  0  0  0  0  0  0  0  0  0  0
  -19.7404   -7.1925    1.2532 Cl  0  0  0  0  0  0  0  0  0  0  0  0
  -22.5961   -5.6440    9.2553 N   0  0  0  0  0  0  0  0  0  0  0  0
  -21.9640   -6.9851    9.0278 C   0  0  0  0  0  0  0  0  0  0  0  0
  -22.6481   -7.9992    8.1597 C   0  0  0  0  0  0  0  0  0  0  0  0
  -25.8568   -5.5518    5.4337 C   0  0  0  0  0  0  0  0  0  0  0  0
  -25.5378   -5.6066    3.9690 C   0  0  0  0  0  0  0  0  0  0  0  0
  -24.3332   -6.3622    3.4915 C   0  0  0  0  0  0  0  0  0  0  0  0
  -23.4477   -7.0632    4.4787 C   0  0  0  0  0  0  0  0  0  0  0  0
  -23.7667   -7.0084    5.9433 C   0  0  0  0  0  0  0  0  0  0  0  0
  -24.9712   -6.2527    6.4208 C   0  0  0  0  0  0  0  0  0  0  0  0
  -22.7176   -7.7914    6.6758 C   0  0  0  0  0  0  0  0  0  0  0  0
  -21.7502   -8.3300    5.6638 C   0  0  0  0  0  0  0  0  0  0  0  0
  -22.2015   -7.8799    4.3059 N   0  0  0  0  0  0  0  0  0  0  0  0
 18 19  2  0  0  0
 19 20  1  0  0  0
 20 21  2  0  0  0
 21 22  1  0  0  0
 22 23  2  0  0  0
 22 24  1  0  0  0
 24 25  2  0  0  0
 25 26  1  0  0  0
 24 17  1  0  0  0
 17 16  1  0  0  0
 16 15  1  0  0  0
 15  1  1  0  0  0
  1  2  1  0  0  0
  2  3  2  0  0  0
  3  4  1  0  0  0
  4  5  2  0  0  0
  5  6  1  0  0  0
  5  7  1  0  0  0
  7  8  2  0  0  0
  8  9  1  0  0  0
  9 10  2  0  0  0
 10 11  1  0  0  0
 11 12  2  0  0  0
 11 13  1  0  0  0
  9 14  1  0  0  0
 23 18  1  0  0  0
 26 21  1  0  0  0
  6  2  1  0  0  0
 12  7  1  0  0  0
M  END
> <minimizedAffinity>
-9.18990

$$$$



 31 34  0  0  0  0  0  0  0  0999 V2000
  -21.1733   -7.5258   13.0598 C   0  0  0  0  0  0  0  0  0  0  0  0
  -21.8710   -7.8482   11.7718 C   0  0  0  0  0  0  0  0  0  0  0  0
  -22.1770   -9.2227   11.2549 C   0  0  0  0  0  0  0  0  0  0  0  0
  -22.8804   -9.0767    9.9380 S   0  0  0  0  0  0  0  0  0  0  0  0
  -23.0092   -7.6120    9.6412 C   0  0  0  0  0  0  0  0  0  0  0  0
  -22.3854   -6.8528   10.7744 C   0  0  0  0  0  0  0  0  0  0  0  0
  -21.8388  -10.5160   11.9352 C   0  0  0  0  0  0  0  0  0  0  0  0
  -23.6494   -7.0120    8.4246 N   0  0  0  0  0  0  0  0  0  0  0  0
  -23.1810   -7.4109    7.0565 C   0  0  0  0  0  0  0  0  0  0  0  0
  -22.0723   -8.4099    6.9051 O   0  0  0  0  0  0  0  0  0  0  0  0
  -23.8212   -6.8109    5.8399 C   0  0  0  0  0  0  0  0  0  0  0  0
  -23.0569   -6.7323    4.5518 C   0  0  0  0  0  0  0  0  0  0  0  0
  -23.6971   -6.1323    3.3352 C   0  0  0  0  0  0  0  0  0  0  0  0
  -25.1017   -5.6109    3.4068 C   0  0  0  0  0  0  0  0  0  0  0  0
  -25.8661   -5.6895    4.6950 C   0  0  0  0  0  0  0  0  0  0  0  0
  -25.2259   -6.2895    5.9116 C   0  0  0  0  0  0  0  0  0  0  0  0
  -22.2923   -5.3602   10.8901 C   0  0  0  0  0  0  0  0  0  0  0  0
  -23.0741   -4.6397   11.9482 C   0  0  0  0  0  0  0  0  0  0  0  0
  -23.0433   -3.1414   12.0139 C   0  0  0  0  0  0  0  0  0  0  0  0
  -23.8252   -2.4209   13.0721 C   0  0  0  0  0  0  0  0  0  0  0  0
  -24.6378   -3.1987   14.0644 C   0  0  0  0  0  0  0  0  0  0  0  0
  -24.6686   -4.6969   13.9987 C   0  0  0  0  0  0  0  0  0  0  0  0
  -23.8867   -5.4174   12.9406 C   0  0  0  0  0  0  0  0  0  0  0  0
  -21.4173   -4.5880    9.9476 N   0  0  0  0  0  0  0  0  0  0  0  0
  -21.9434   -4.1726    8.6058 C   0  0  0  0  0  0  0  0  0  0  0  0
  -23.4145   -3.9530    8.4122 C   0  0  0  0  0  0  0  0  0  0  0  0
  -23.9406   -3.5376    7.0703 C   0  0  0  0  0  0  0  0  0  0  0  0
  -22.9956   -3.3419    5.9220 C   0  0  0  0  0  0  0  0  0  0  0  0
  -21.5245   -3.5616    6.1155 C   0  0  0  0  0  0  0  0  0  0  0  0
  -20.9984   -3.9770    7.4575 C   0  0  0  0  0  0  0  0  0  0  0  0
  -23.5217   -2.9266    4.5801 F   0  0  0  0  0  0  0  0  0  0  0  0
  1  2  1  0  0  0
  2  3  2  0  0  0
  3  4  1  0  0  0
  4  5  1  0  0  0
  5  6  2  0  0  0
  6 17  1  0  0  0
 17 18  1  0  0  0
 18 19  2  0  0  0
 19 20  1  0  0  0
 20 21  2  0  0  0
 21 22  1  0  0  0
 22 23  2  0  0  0
 17 24  1  0  0  0
 24 25  1  0  0  0
 25 26  2  0  0  0
 26 27  1  0  0  0
 27 28  2  0  0  0
 28 29  1  0  0  0
 29 30  2  0  0  0
 28 31  1  0  0  0
  5  8  1  0  0  0
  8  9  1  0  0  0
  9 10  2  0  0  0
  9 11  1  0  0  0
 11 12  2  0  0  0
 12 13  1  0  0  0
 13 14  2  0  0  0
 14 15  1  0  0  0
 15 16  2  0  0  0
  3  7  1  0  0  0
  6  2  1  0  0  0
 23 18  1  0  0  0
 30 25  1  0  0  0
 16 11  1  0  0  0
M  END
> <minimizedAffinity>
-9.36736

$$$$



 31 34  0  0  0  0  0  0  0  0999 V2000
  -21.1470   -7.5358   13.0982 C   0  0  0  0  0  0  0  0  0  0  0  0
  -21.8248   -7.8724   11.8031 C   0  0  0  0  0  0  0  0  0  0  0  0
  -22.0947   -9.2529   11.2821 C   0  0  0  0  0  0  0  0  0  0  0  0
  -22.7884   -9.1214    9.9586 S   0  0  0  0  0  0  0  0  0  0  0  0
  -22.9472   -7.6597    9.6617 C   0  0  0  0  0  0  0  0  0  0  0  0
  -22.3517   -6.8878   10.8017 C   0  0  0  0  0  0  0  0  0  0  0  0
  -21.7342  -10.5390   11.9646 C   0  0  0  0  0  0  0  0  0  0  0  0
  -23.5889   -7.0729    8.4394 N   0  0  0  0  0  0  0  0  0  0  0  0
  -23.0942   -7.4549    7.0758 C   0  0  0  0  0  0  0  0  0  0  0  0
  -21.9578   -8.4237    6.9345 O   0  0  0  0  0  0  0  0  0  0  0  0
  -23.7359   -6.8682    5.8536 C   0  0  0  0  0  0  0  0  0  0  0  0
  -25.1638   -6.4116    5.9020 C   0  0  0  0  0  0  0  0  0  0  0  0
  -25.8055   -5.8249    4.6797 C   0  0  0  0  0  0  0  0  0  0  0  0
  -25.0192   -5.6947    3.4090 C   0  0  0  0  0  0  0  0  0  0  0  0
  -23.5912   -6.1513    3.3605 C   0  0  0  0  0  0  0  0  0  0  0  0
  -22.9495   -6.7380    4.5828 C   0  0  0  0  0  0  0  0  0  0  0  0
  -22.2933   -5.3936   10.9195 C   0  0  0  0  0  0  0  0  0  0  0  0
  -23.0793   -4.6943   11.9888 C   0  0  0  0  0  0  0  0  0  0  0  0
  -23.0111   -3.2011   12.1144 C   0  0  0  0  0  0  0  0  0  0  0  0
  -23.7970   -2.5018   13.1837 C   0  0  0  0  0  0  0  0  0  0  0  0
  -24.6511   -3.2957   14.1273 C   0  0  0  0  0  0  0  0  0  0  0  0
  -24.7192   -4.7888   14.0016 C   0  0  0  0  0  0  0  0  0  0  0  0
  -23.9333   -5.4881   12.9323 C   0  0  0  0  0  0  0  0  0  0  0  0
  -21.4490   -4.5986    9.9680 N   0  0  0  0  0  0  0  0  0  0  0  0
  -22.0052   -4.1845    8.6380 C   0  0  0  0  0  0  0  0  0  0  0  0
  -21.0780   -3.8861    7.4973 C   0  0  0  0  0  0  0  0  0  0  0  0
  -21.6342   -3.4720    6.1672 C   0  0  0  0  0  0  0  0  0  0  0  0
  -23.1178   -3.3564    5.9778 C   0  0  0  0  0  0  0  0  0  0  0  0
  -24.0450   -3.6549    7.1184 C   0  0  0  0  0  0  0  0  0  0  0  0
  -23.4887   -4.0690    8.4486 C   0  0  0  0  0  0  0  0  0  0  0  0
  -24.4159   -4.3675    9.5892 F   0  0  0  0  0  0  0  0  0  0  0  0
  1  2  1  0  0  0
  2  3  2  0  0  0
  3  4  1  0  0  0
  4  5  1  0  0  0
  5  6  2  0  0  0
  6 17  1  0  0  0
 17 18  1  0  0  0
 18 19  2  0  0  0
 19 20  1  0  0  0
 20 21  2  0  0  0
 21 22  1  0  0  0
 22 23  2  0  0  0
 17 24  1  0  0  0
 24 25  1  0  0  0
 25 26  2  0  0  0
 26 27  1  0  0  0
 27 28  2  0  0  0
 28 29  1  0  0  0
 29 30  2  0  0  0
 30 31  1  0  0  0
  5  8  1  0  0  0
  8  9  1  0  0  0
  9 10  2  0  0  0
  9 11  1  0  0  0
 11 12  2  0  0  0
 12 13  1  0  0  0
 13 14  2  0  0  0
 14 15  1  0  0  0
 15 16  2  0  0  0
  3  7  1  0  0  0
  6  2  1  0  0  0
 23 18  1  0  0  0
 30 25  1  0  0  0
 16 11  1  0  0  0
M  END
> <minimizedAffinity>
-9.28105

$$$$



 31 34  0  0  0  0  0  0  0  0999 V2000
  -21.8518   -7.8477   13.5220 C   0  0  0  0  0  0  0  0  0  0  0  0
  -22.5540   -7.7514   12.2000 C   0  0  0  0  0  0  0  0  0  0  0  0
  -23.3412   -8.9901   11.8904 C   0  0  0  0  0  0  0  0  0  0  0  0
  -24.0023   -8.7981   10.5577 S   0  0  0  0  0  0  0  0  0  0  0  0
  -23.6237   -7.4408   10.0437 C   0  0  0  0  0  0  0  0  0  0  0  0
  -22.7286   -6.7938   11.0587 C   0  0  0  0  0  0  0  0  0  0  0  0
  -23.4485  -10.2071   12.7607 C   0  0  0  0  0  0  0  0  0  0  0  0
  -24.0631   -6.8365    8.7430 N   0  0  0  0  0  0  0  0  0  0  0  0
  -23.5934   -7.4253    7.4457 C   0  0  0  0  0  0  0  0  0  0  0  0
  -22.6843   -8.6184    7.4493 O   0  0  0  0  0  0  0  0  0  0  0  0
  -24.0328   -6.8210    6.1451 C   0  0  0  0  0  0  0  0  0  0  0  0
  -25.3859   -6.1836    6.0334 C   0  0  0  0  0  0  0  0  0  0  0  0
  -25.8253   -5.5793    4.7327 C   0  0  0  0  0  0  0  0  0  0  0  0
  -24.9114   -5.6125    3.5437 C   0  0  0  0  0  0  0  0  0  0  0  0
  -23.5582   -6.2499    3.6554 C   0  0  0  0  0  0  0  0  0  0  0  0
  -23.1188   -6.8542    4.9560 C   0  0  0  0  0  0  0  0  0  0  0  0
  -22.1157   -5.4290   10.9512 C   0  0  0  0  0  0  0  0  0  0  0  0
  -22.3726   -4.4054   12.0172 C   0  0  0  0  0  0  0  0  0  0  0  0
  -23.5991   -3.5446   11.9504 C   0  0  0  0  0  0  0  0  0  0  0  0
  -23.8560   -2.5210   13.0164 C   0  0  0  0  0  0  0  0  0  0  0  0
  -22.8863   -2.3583   14.1492 C   0  0  0  0  0  0  0  0  0  0  0  0
  -21.6596   -3.2192   14.2160 C   0  0  0  0  0  0  0  0  0  0  0  0
  -21.4028   -4.2427   13.1500 C   0  0  0  0  0  0  0  0  0  0  0  0
  -20.1763   -5.1036   13.2167 F   0  0  0  0  0  0  0  0  0  0  0  0
  -21.2460   -5.0877    9.7777 N   0  0  0  0  0  0  0  0  0  0  0  0
  -21.8484   -4.4629    8.5542 C   0  0  0  0  0  0  0  0  0  0  0  0
  -21.0101   -4.2561    7.3276 C   0  0  0  0  0  0  0  0  0  0  0  0
  -21.6125   -3.6313    6.1041 C   0  0  0  0  0  0  0  0  0  0  0  0
  -23.0532   -3.2134    6.1074 C   0  0  0  0  0  0  0  0  0  0  0  0
  -23.8914   -3.4203    7.3340 C   0  0  0  0  0  0  0  0  0  0  0  0
  -23.2889   -4.0450    8.5574 C   0  0  0  0  0  0  0  0  0  0  0  0
  1  2  1  0  0  0
  2  3  2  0  0  0
  3  4  1  0  0  0
  4  5  1  0  0  0
  5  6  2  0  0  0
  6 17  1  0  0  0
 17 18  1  0  0  0
 18 19  2  0  0  0
 19 20  1  0  0  0
 20 21  2  0  0  0
 21 22  1  0  0  0
 22 23  2  0  0  0
 23 24  1  0  0  0
 17 25  1  0  0  0
 25 26  1  0  0  0
 26 27  2  0  0  0
 27 28  1  0  0  0
 28 29  2  0  0  0
 29 30  1  0  0  0
 30 31  2  0  0  0
  5  8  1  0  0  0
  8  9  1  0  0  0
  9 10  2  0  0  0
  9 11  1  0  0  0
 11 12  2  0  0  0
 12 13  1  0  0  0
 13 14  2  0  0  0
 14 15  1  0  0  0
 15 16  2  0  0  0
  3  7  1  0  0  0
  6  2  1  0  0  0
 23 18  1  0  0  0
 31 26  1  0  0  0
 16 11  1  0  0  0
M  END
> <minimizedAffinity>
-9.21699

$$$$



 27 30  0  0  0  0  0  0  0  0999 V2000
  -22.3689   -6.0912   10.2839 C   0  0  0  0  0  0  0  0  0  0  0  0
  -22.7492   -4.6906   10.6631 C   0  0  0  0  0  0  0  0  0  0  0  0
  -22.4459   -3.7963    9.4977 S   0  0  0  0  0  0  0  0  0  0  0  0
  -21.8781   -4.6441    8.3983 C   0  0  0  0  0  0  0  0  0  0  0  0
  -21.8306   -6.0624    8.8842 N   0  0  0  0  0  0  0  0  0  0  0  0
  -22.7724   -9.7387   12.8884 C   0  0  0  0  0  0  0  0  0  0  0  0
  -21.6749   -8.7497   13.1476 C   0  0  0  0  0  0  0  0  0  0  0  0
  -21.5404   -7.5339   12.2795 C   0  0  0  0  0  0  0  0  0  0  0  0
  -22.5034   -7.3070   11.1521 C   0  0  0  0  0  0  0  0  0  0  0  0
  -23.6010   -8.2960   10.8929 C   0  0  0  0  0  0  0  0  0  0  0  0
  -23.7355   -9.5118   11.7610 C   0  0  0  0  0  0  0  0  0  0  0  0
  -22.0002  -11.1369   14.9375 C   0  0  0  0  0  0  0  0  0  0  0  0
  -22.9069  -10.9545   13.7565 S   0  0  0  0  0  0  0  0  0  0  0  0
  -23.3307   -4.2600   11.9770 C   0  0  0  0  0  0  0  0  0  0  0  0
  -23.9576   -5.2733   12.8880 C   0  0  0  0  0  0  0  0  0  0  0  0
  -24.5391   -4.8427   14.2019 C   0  0  0  0  0  0  0  0  0  0  0  0
  -24.4938   -3.3985   14.6049 C   0  0  0  0  0  0  0  0  0  0  0  0
  -23.8669   -2.3850   13.6939 C   0  0  0  0  0  0  0  0  0  0  0  0
  -23.2854   -2.8157   12.3800 C   0  0  0  0  0  0  0  0  0  0  0  0
  -21.4356   -4.1589    7.0497 N   0  0  0  0  0  0  0  0  0  0  0  0
  -22.3727   -3.3561    6.1968 N   0  0  0  0  0  0  0  0  0  0  0  0
  -23.5204   -4.0298    5.5048 C   0  0  0  0  0  0  0  0  0  0  0  0
  -23.7521   -3.8009    4.0406 C   0  0  0  0  0  0  0  0  0  0  0  0
  -24.8998   -4.4746    3.3485 C   0  0  0  0  0  0  0  0  0  0  0  0
  -25.8159   -5.3771    4.1207 C   0  0  0  0  0  0  0  0  0  0  0  0
  -25.5842   -5.6060    5.5850 C   0  0  0  0  0  0  0  0  0  0  0  0
  -24.4364   -4.9323    6.2770 C   0  0  0  0  0  0  0  0  0  0  0  0
 12 13  1  0  0  0
 13  6  1  0  0  0
  6  7  2  0  0  0
  7  8  1  0  0  0
  8  9  2  0  0  0
  9 10  1  0  0  0
 10 11  2  0  0  0
  9  1  1  0  0  0
  1  2  2  0  0  0
  2  3  1  0  0  0
  3  4  1  0  0  0
  4  5  2  0  0  0
  4 20  1  0  0  0
 20 21  1  0  0  0
 21 22  1  0  0  0
 22 23  2  0  0  0
 23 24  1  0  0  0
 24 25  2  0  0  0
 25 26  1  0  0  0
 26 27  2  0  0  0
  2 14  1  0  0  0
 14 15  2  0  0  0
 15 16  1  0  0  0
 16 17  2  0  0  0
 17 18  1  0  0  0
 18 19  2  0  0  0
 11  6  1  0  0  0
  5  1  1  0  0  0
 27 22  1  0  0  0
 19 14  1  0  0  0
M  END
> <minimizedAffinity>
-9.68470

$$$$



 27 30  0  0  0  0  0  0  0  0999 V2000
  -24.0682   -4.7492   13.4093 C   0  0  0  0  0  0  0  0  0  0  0  0
  -24.0885   -4.3584   14.8573 C   0  0  0  0  0  0  0  0  0  0  0  0
  -23.8324   -2.9345   15.2536 C   0  0  0  0  0  0  0  0  0  0  0  0
  -23.5562   -1.9015   14.2017 C   0  0  0  0  0  0  0  0  0  0  0  0
  -23.5359   -2.2923   12.7537 C   0  0  0  0  0  0  0  0  0  0  0  0
  -23.7920   -3.7161   12.3574 C   0  0  0  0  0  0  0  0  0  0  0  0
  -23.7717   -4.1069   10.9094 C   0  0  0  0  0  0  0  0  0  0  0  0
  -24.9236   -4.6724   10.1326 N   0  0  0  0  0  0  0  0  0  0  0  0
  -24.4599   -4.9158    8.7270 C   0  0  0  0  0  0  0  0  0  0  0  0
  -25.1616   -5.4618    7.5189 C   0  0  0  0  0  0  0  0  0  0  0  0
  -24.4248   -5.5927    6.2189 C   0  0  0  0  0  0  0  0  0  0  0  0
  -22.9863   -5.1777    6.1270 C   0  0  0  0  0  0  0  0  0  0  0  0
  -22.2846   -4.6318    7.3351 C   0  0  0  0  0  0  0  0  0  0  0  0
  -23.0213   -4.5008    8.6351 C   0  0  0  0  0  0  0  0  0  0  0  0
  -22.5961   -4.0009    9.9839 N   0  0  0  0  0  0  0  0  0  0  0  0
  -24.3243   -6.1732   13.0131 N   0  0  0  0  0  0  0  0  0  0  0  0
  -23.8174   -8.0123   11.2493 C   0  0  0  0  0  0  0  0  0  0  0  0
  -23.3478   -6.8935   12.1314 C   0  0  0  0  0  0  0  0  0  0  0  0
  -22.0952   -9.9242   10.8911 C   0  0  0  0  0  0  0  0  0  0  0  0
  -22.8409   -8.7326   10.3676 C   0  0  0  0  0  0  0  0  0  0  0  0
  -22.6100   -8.2614    8.9624 Br  0  0  0  0  0  0  0  0  0  0  0  0
  -22.7877  -11.3378   15.1069 C   0  0  0  0  0  0  0  0  0  0  0  0
  -21.3936  -11.0578   14.6291 C   0  0  0  0  0  0  0  0  0  0  0  0
  -21.1628  -10.5866   13.2239 C   0  0  0  0  0  0  0  0  0  0  0  0
  -22.3260  -10.3954   12.2964 C   0  0  0  0  0  0  0  0  0  0  0  0
  -23.7201  -10.6753   12.7741 C   0  0  0  0  0  0  0  0  0  0  0  0
  -23.9510  -11.1465   14.1793 C   0  0  0  0  0  0  0  0  0  0  0  0
 22 23  2  0  0  0
 23 24  1  0  0  0
 24 25  2  0  0  0
 25 26  1  0  0  0
 26 27  2  0  0  0
 25 19  1  0  0  0
 19 20  2  0  0  0
 20 17  1  0  0  0
 17 18  2  0  0  0
 18 16  1  0  0  0
 16  1  1  0  0  0
  1  2  2  0  0  0
  2  3  1  0  0  0
  3  4  2  0  0  0
  4  5  1  0  0  0
  5  6  2  0  0  0
  6  7  1  0  0  0
  7  8  1  0  0  0
  8  9  1  0  0  0
  9 10  2  0  0  0
 10 11  1  0  0  0
 11 12  2  0  0  0
 12 13  1  0  0  0
 13 14  2  0  0  0
 14 15  1  0  0  0
 20 21  1  0  0  0
 27 22  1  0  0  0
  6  1  1  0  0  0
 15  7  2  0  0  0
 14  9  1  0  0  0
M  END
> <minimizedAffinity>
-9.84101

$$$$



 29 32  0  0  0  0  0  0  0  0999 V2000
  -23.7471   -4.9458   11.0453 C   0  0  0  0  0  0  0  0  0  0  0  0
  -23.2819   -6.3320   10.7107 C   0  0  0  0  0  0  0  0  0  0  0  0
  -23.3709   -6.5044    9.2233 S   0  0  0  0  0  0  0  0  0  0  0  0
  -23.8912   -5.2248    8.6386 C   0  0  0  0  0  0  0  0  0  0  0  0
  -24.1237   -4.2616    9.7647 N   0  0  0  0  0  0  0  0  0  0  0  0
  -24.0489   -2.5576   16.5413 C   0  0  0  0  0  0  0  0  0  0  0  0
  -23.9735   -3.1547   15.1673 C   0  0  0  0  0  0  0  0  0  0  0  0
  -23.6227   -2.2907   13.9923 C   0  0  0  0  0  0  0  0  0  0  0  0
  -23.5473   -2.8878   12.6183 C   0  0  0  0  0  0  0  0  0  0  0  0
  -23.8226   -4.3488   12.4193 C   0  0  0  0  0  0  0  0  0  0  0  0
  -24.1733   -5.2127   13.5943 C   0  0  0  0  0  0  0  0  0  0  0  0
  -24.2488   -4.6157   14.9682 C   0  0  0  0  0  0  0  0  0  0  0  0
  -24.1360   -4.9557    7.1834 C   0  0  0  0  0  0  0  0  0  0  0  0
  -23.2886   -3.9568    6.4525 C   0  0  0  0  0  0  0  0  0  0  0  0
  -23.5335   -3.6877    4.9974 C   0  0  0  0  0  0  0  0  0  0  0  0
  -24.6257   -4.4174    4.2731 C   0  0  0  0  0  0  0  0  0  0  0  0
  -25.4731   -5.4162    5.0040 C   0  0  0  0  0  0  0  0  0  0  0  0
  -25.2282   -5.6853    6.4592 C   0  0  0  0  0  0  0  0  0  0  0  0
  -24.8706   -4.1483    2.8178 C   0  0  0  0  0  0  0  0  0  0  0  0
  -22.8103   -7.3645   11.6913 N   0  0  0  0  0  0  0  0  0  0  0  0
  -23.4456   -8.7231   11.7136 C   0  0  0  0  0  0  0  0  0  0  0  0
  -24.5526   -9.0493   10.7553 N   0  0  0  0  0  0  0  0  0  0  0  0
  -22.9741   -9.7556   12.6942 C   0  0  0  0  0  0  0  0  0  0  0  0
  -23.9696  -10.6165   13.4137 C   0  0  0  0  0  0  0  0  0  0  0  0
  -23.4981  -11.6490   14.3943 C   0  0  0  0  0  0  0  0  0  0  0  0
  -22.0310  -11.8207   14.6553 C   0  0  0  0  0  0  0  0  0  0  0  0
  -21.0354  -10.9598   13.9358 C   0  0  0  0  0  0  0  0  0  0  0  0
  -21.5070   -9.9273   12.9552 C   0  0  0  0  0  0  0  0  0  0  0  0
  -21.5593  -12.8532   15.6359 Cl  0  0  0  0  0  0  0  0  0  0  0  0
  6  7  1  0  0  0
  7  8  2  0  0  0
  8  9  1  0  0  0
  9 10  2  0  0  0
 10 11  1  0  0  0
 11 12  2  0  0  0
 10  1  1  0  0  0
  1  2  2  0  0  0
  2  3  1  0  0  0
  3  4  1  0  0  0
  4  5  2  0  0  0
  4 13  1  0  0  0
 13 14  2  0  0  0
 14 15  1  0  0  0
 15 16  2  0  0  0
 16 17  1  0  0  0
 17 18  2  0  0  0
 16 19  1  0  0  0
  2 20  1  0  0  0
 20 21  2  0  0  0
 21 23  1  0  0  0
 23 24  2  0  0  0
 24 25  1  0  0  0
 25 26  2  0  0  0
 26 27  1  0  0  0
 27 28  2  0  0  0
 26 29  1  0  0  0
 21 22  1  0  0  0
 12  7  1  0  0  0
  5  1  1  0  0  0
 18 13  1  0  0  0
 28 23  1  0  0  0
M  END
> <minimizedAffinity>
-9.22031

$$$$



 28 31  0  0  0  0  0  0  0  0999 V2000
  -22.3641   -6.5295    9.5257 C   0  0  0  0  0  0  0  0  0  0  0  0
  -22.5703   -5.7427    8.2653 C   0  0  0  0  0  0  0  0  0  0  0  0
  -21.6600   -4.5959    7.9397 C   0  0  0  0  0  0  0  0  0  0  0  0
  -21.8662   -3.8091    6.6794 C   0  0  0  0  0  0  0  0  0  0  0  0
  -22.9828   -4.1691    5.7446 C   0  0  0  0  0  0  0  0  0  0  0  0
  -23.1890   -3.3824    4.4843 C   0  0  0  0  0  0  0  0  0  0  0  0
  -24.3055   -3.7424    3.5497 C   0  0  0  0  0  0  0  0  0  0  0  0
  -25.2159   -4.8893    3.8753 C   0  0  0  0  0  0  0  0  0  0  0  0
  -25.0097   -5.6760    5.1356 N   0  0  0  0  0  0  0  0  0  0  0  0
  -23.8931   -5.3160    6.0703 C   0  0  0  0  0  0  0  0  0  0  0  0
  -23.6869   -6.1028    7.3307 C   0  0  0  0  0  0  0  0  0  0  0  0
  -24.5972   -7.2496    7.6563 O   0  0  0  0  0  0  0  0  0  0  0  0
  -22.2647   -4.4240   13.5015 C   0  0  0  0  0  0  0  0  0  0  0  0
  -21.0013   -4.9826   12.9169 C   0  0  0  0  0  0  0  0  0  0  0  0
  -21.0344   -5.6844   11.5916 C   0  0  0  0  0  0  0  0  0  0  0  0
  -22.3310   -5.8277   10.8510 C   0  0  0  0  0  0  0  0  0  0  0  0
  -23.5943   -5.2691   11.4356 C   0  0  0  0  0  0  0  0  0  0  0  0
  -23.5612   -4.5673   12.7609 C   0  0  0  0  0  0  0  0  0  0  0  0
  -22.1909   -8.0180    9.4608 N   0  0  0  0  0  0  0  0  0  0  0  0
  -22.3288   -8.8440   10.7052 C   0  0  0  0  0  0  0  0  0  0  0  0
  -21.1076   -9.4014   11.3746 C   0  0  0  0  0  0  0  0  0  0  0  0
  -21.2455  -10.2274   12.6191 C   0  0  0  0  0  0  0  0  0  0  0  0
  -22.6045  -10.4961   13.1941 C   0  0  0  0  0  0  0  0  0  0  0  0
  -23.8257   -9.9388   12.5247 C   0  0  0  0  0  0  0  0  0  0  0  0
  -23.6879   -9.1128   11.2803 C   0  0  0  0  0  0  0  0  0  0  0  0
  -24.9091   -8.5555   10.6109 Cl  0  0  0  0  0  0  0  0  0  0  0  0
  -22.7424  -11.3222   14.4385 Cl  0  0  0  0  0  0  0  0  0  0  0  0
  -20.0243  -10.7847   13.2884 Cl  0  0  0  0  0  0  0  0  0  0  0  0
 13 14  2  0  0  0
 14 15  1  0  0  0
 15 16  2  0  0  0
 16 17  1  0  0  0
 17 18  2  0  0  0
 16  1  1  0  0  0
  1  2  1  0  0  0
  2  3  2  0  0  0
  3  4  1  0  0  0
  4  5  2  0  0  0
  5  6  1  0  0  0
  6  7  2  0  0  0
  7  8  1  0  0  0
  8  9  2  0  0  0
  9 10  1  0  0  0
 10 11  2  0  0  0
 11 12  1  0  0  0
  1 19  1  0  0  0
 19 20  1  0  0  0
 20 21  2  0  0  0
 21 22  1  0  0  0
 22 23  2  0  0  0
 23 24  1  0  0  0
 24 25  2  0  0  0
 25 26  1  0  0  0
 23 27  1  0  0  0
 22 28  1  0  0  0
 18 13  1  0  0  0
 11  2  1  0  0  0
 10  5  1  0  0  0
 25 20  1  0  0  0
M  END
> <minimizedAffinity>
-9.21561

$$$$



 27 30  0  0  0  0  0  0  0  0999 V2000
  -23.7950   -5.1469   10.0386 C   0  0  0  0  0  0  0  0  0  0  0  0
  -23.5444   -4.6521    8.6449 C   0  0  0  0  0  0  0  0  0  0  0  0
  -22.3750   -3.7548    8.3666 C   0  0  0  0  0  0  0  0  0  0  0  0
  -22.1243   -3.2600    6.9729 C   0  0  0  0  0  0  0  0  0  0  0  0
  -23.0430   -3.6624    5.8575 C   0  0  0  0  0  0  0  0  0  0  0  0
  -22.7923   -3.1676    4.4639 C   0  0  0  0  0  0  0  0  0  0  0  0
  -23.7110   -3.5701    3.3486 C   0  0  0  0  0  0  0  0  0  0  0  0
  -24.8804   -4.4674    3.6269 C   0  0  0  0  0  0  0  0  0  0  0  0
  -25.1311   -4.9622    5.0205 N   0  0  0  0  0  0  0  0  0  0  0  0
  -24.2124   -4.5597    6.1358 C   0  0  0  0  0  0  0  0  0  0  0  0
  -24.4630   -5.0546    7.5296 C   0  0  0  0  0  0  0  0  0  0  0  0
  -25.6324   -5.9519    7.8079 O   0  0  0  0  0  0  0  0  0  0  0  0
  -22.9582   -9.4427   11.0855 C   0  0  0  0  0  0  0  0  0  0  0  0
  -24.0003   -8.6752   11.8439 C   0  0  0  0  0  0  0  0  0  0  0  0
  -24.2792   -7.2433   11.4949 C   0  0  0  0  0  0  0  0  0  0  0  0
  -23.5161   -6.5788   10.3876 C   0  0  0  0  0  0  0  0  0  0  0  0
  -22.4740   -7.3463    9.6292 C   0  0  0  0  0  0  0  0  0  0  0  0
  -22.1951   -8.7782    9.9782 C   0  0  0  0  0  0  0  0  0  0  0  0
  -24.3246   -4.2098   11.0833 N   0  0  0  0  0  0  0  0  0  0  0  0
  -23.4363   -3.7563   12.2036 C   0  0  0  0  0  0  0  0  0  0  0  0
  -22.1332   -4.4547   12.4572 C   0  0  0  0  0  0  0  0  0  0  0  0
  -21.2449   -4.0012   13.5777 C   0  0  0  0  0  0  0  0  0  0  0  0
  -21.6596   -2.8493   14.4443 C   0  0  0  0  0  0  0  0  0  0  0  0
  -22.9627   -2.1510   14.1907 C   0  0  0  0  0  0  0  0  0  0  0  0
  -23.8510   -2.6044   13.0704 C   0  0  0  0  0  0  0  0  0  0  0  0
  -23.3774   -0.9991   15.0574 Cl  0  0  0  0  0  0  0  0  0  0  0  0
  -19.9418   -4.6995   13.8313 Cl  0  0  0  0  0  0  0  0  0  0  0  0
 13 14  2  0  0  0
 14 15  1  0  0  0
 15 16  2  0  0  0
 16 17  1  0  0  0
 17 18  2  0  0  0
 16  1  1  0  0  0
  1  2  1  0  0  0
  2  3  2  0  0  0
  3  4  1  0  0  0
  4  5  2  0  0  0
  5  6  1  0  0  0
  6  7  2  0  0  0
  7  8  1  0  0  0
  8  9  2  0  0  0
  9 10  1  0  0  0
 10 11  2  0  0  0
 11 12  1  0  0  0
  1 19  1  0  0  0
 19 20  1  0  0  0
 20 21  2  0  0  0
 21 22  1  0  0  0
 22 23  2  0  0  0
 23 24  1  0  0  0
 24 25  2  0  0  0
 24 26  1  0  0  0
 22 27  1  0  0  0
 18 13  1  0  0  0
 11  2  1  0  0  0
 10  5  1  0  0  0
 25 20  1  0  0  0
M  END
> <minimizedAffinity>
-9.75999

$$$$



 27 30  0  0  0  0  0  0  0  0999 V2000
  -23.7950   -5.1469   10.0386 C   0  0  0  0  0  0  0  0  0  0  0  0
  -23.5444   -4.6521    8.6449 C   0  0  0  0  0  0  0  0  0  0  0  0
  -22.3750   -3.7548    8.3666 C   0  0  0  0  0  0  0  0  0  0  0  0
  -22.1243   -3.2600    6.9729 C   0  0  0  0  0  0  0  0  0  0  0  0
  -23.0430   -3.6624    5.8575 C   0  0  0  0  0  0  0  0  0  0  0  0
  -22.7923   -3.1676    4.4639 C   0  0  0  0  0  0  0  0  0  0  0  0
  -23.7110   -3.5701    3.3486 C   0  0  0  0  0  0  0  0  0  0  0  0
  -24.8804   -4.4674    3.6269 C   0  0  0  0  0  0  0  0  0  0  0  0
  -25.1311   -4.9622    5.0205 N   0  0  0  0  0  0  0  0  0  0  0  0
  -24.2124   -4.5597    6.1358 C   0  0  0  0  0  0  0  0  0  0  0  0
  -24.4630   -5.0546    7.5296 C   0  0  0  0  0  0  0  0  0  0  0  0
  -25.6324   -5.9519    7.8079 O   0  0  0  0  0  0  0  0  0  0  0  0
  -22.9582   -9.4427   11.0855 C   0  0  0  0  0  0  0  0  0  0  0  0
  -24.0003   -8.6752   11.8439 C   0  0  0  0  0  0  0  0  0  0  0  0
  -24.2792   -7.2433   11.4949 C   0  0  0  0  0  0  0  0  0  0  0  0
  -23.5161   -6.5788   10.3876 C   0  0  0  0  0  0  0  0  0  0  0  0
  -22.4740   -7.3463    9.6292 C   0  0  0  0  0  0  0  0  0  0  0  0
  -22.1951   -8.7782    9.9782 C   0  0  0  0  0  0  0  0  0  0  0  0
  -24.3246   -4.2098   11.0833 N   0  0  0  0  0  0  0  0  0  0  0  0
  -23.4363   -3.7563   12.2036 C   0  0  0  0  0  0  0  0  0  0  0  0
  -22.1332   -4.4547   12.4572 C   0  0  0  0  0  0  0  0  0  0  0  0
  -21.2449   -4.0012   13.5777 C   0  0  0  0  0  0  0  0  0  0  0  0
  -21.6596   -2.8493   14.4443 C   0  0  0  0  0  0  0  0  0  0  0  0
  -22.9627   -2.1510   14.1907 C   0  0  0  0  0  0  0  0  0  0  0  0
  -23.8510   -2.6044   13.0704 C   0  0  0  0  0  0  0  0  0  0  0  0
  -23.3774   -0.9991   15.0574 Cl  0  0  0  0  0  0  0  0  0  0  0  0
  -19.9418   -4.6995   13.8313 Cl  0  0  0  0  0  0  0  0  0  0  0  0
 13 14  2  0  0  0
 14 15  1  0  0  0
 15 16  2  0  0  0
 16 17  1  0  0  0
 17 18  2  0  0  0
 16  1  1  0  0  0
  1  2  1  0  0  0
  2  3  2  0  0  0
  3  4  1  0  0  0
  4  5  2  0  0  0
  5  6  1  0  0  0
  6  7  2  0  0  0
  7  8  1  0  0  0
  8  9  2  0  0  0
  9 10  1  0  0  0
 10 11  2  0  0  0
 11 12  1  0  0  0
  1 19  1  0  0  0
 19 20  1  0  0  0
 20 21  2  0  0  0
 21 22  1  0  0  0
 22 23  2  0  0  0
 23 24  1  0  0  0
 24 25  2  0  0  0
 24 26  1  0  0  0
 22 27  1  0  0  0
 18 13  1  0  0  0
 11  2  1  0  0  0
 10  5  1  0  0  0
 25 20  1  0  0  0
M  END
> <minimizedAffinity>
-9.75999

$$$$



 26 29  0  0  0  0  0  0  0  0999 V2000
  -23.8260   -5.2631    9.9488 C   0  0  0  0  0  0  0  0  0  0  0  0
  -23.7388   -3.5324    3.2969 C   0  0  0  0  0  0  0  0  0  0  0  0
  -22.8413   -3.1279    4.4287 C   0  0  0  0  0  0  0  0  0  0  0  0
  -23.0875   -3.6617    5.8087 C   0  0  0  0  0  0  0  0  0  0  0  0
  -22.1900   -3.2572    6.9405 C   0  0  0  0  0  0  0  0  0  0  0  0
  -22.4361   -3.7910    8.3205 C   0  0  0  0  0  0  0  0  0  0  0  0
  -23.5798   -4.7293    8.5688 C   0  0  0  0  0  0  0  0  0  0  0  0
  -24.4773   -5.1338    7.4370 C   0  0  0  0  0  0  0  0  0  0  0  0
  -24.2311   -4.6000    6.0570 C   0  0  0  0  0  0  0  0  0  0  0  0
  -25.1286   -5.0045    4.9252 N   0  0  0  0  0  0  0  0  0  0  0  0
  -24.8824   -4.4707    3.5452 C   0  0  0  0  0  0  0  0  0  0  0  0
  -25.6209   -6.0721    7.6853 O   0  0  0  0  0  0  0  0  0  0  0  0
  -23.5343   -6.7012   10.2597 C   0  0  0  0  0  0  0  0  0  0  0  0
  -22.3145   -7.4649    9.8367 C   0  0  0  0  0  0  0  0  0  0  0  0
  -22.4376   -8.8639   10.3638 C   0  0  0  0  0  0  0  0  0  0  0  0
  -23.7334   -8.9647   11.1127 C   0  0  0  0  0  0  0  0  0  0  0  0
  -24.4112   -7.6281   11.0483 S   0  0  0  0  0  0  0  0  0  0  0  0
  -24.3638   -4.3587   11.0179 N   0  0  0  0  0  0  0  0  0  0  0  0
  -23.4651   -3.8849   12.1214 C   0  0  0  0  0  0  0  0  0  0  0  0
  -22.1657   -4.5867   12.3840 C   0  0  0  0  0  0  0  0  0  0  0  0
  -21.2670   -4.1129   13.4876 C   0  0  0  0  0  0  0  0  0  0  0  0
  -21.6678   -2.9372   14.3285 C   0  0  0  0  0  0  0  0  0  0  0  0
  -22.9672   -2.2354   14.0659 C   0  0  0  0  0  0  0  0  0  0  0  0
  -23.8658   -2.7092   12.9624 C   0  0  0  0  0  0  0  0  0  0  0  0
  -23.3679   -1.0596   14.9069 Cl  0  0  0  0  0  0  0  0  0  0  0  0
  -19.9676   -4.8147   13.7502 Cl  0  0  0  0  0  0  0  0  0  0  0  0
  2  3  2  0  0  0
  3  4  1  0  0  0
  4  5  2  0  0  0
  5  6  1  0  0  0
  6  7  2  0  0  0
  7  8  1  0  0  0
  8  9  2  0  0  0
  9 10  1  0  0  0
 10 11  2  0  0  0
  8 12  1  0  0  0
  7  1  1  0  0  0
  1 13  1  0  0  0
 13 14  2  0  0  0
 14 15  1  0  0  0
 15 16  2  0  0  0
 16 17  1  0  0  0
  1 18  1  0  0  0
 18 19  1  0  0  0
 19 20  2  0  0  0
 20 21  1  0  0  0
 21 22  2  0  0  0
 22 23  1  0  0  0
 23 24  2  0  0  0
 23 25  1  0  0  0
 21 26  1  0  0  0
 11  2  1  0  0  0
  9  4  1  0  0  0
 17 13  1  0  0  0
 24 19  1  0  0  0
M  END
> <minimizedAffinity>
-9.53047

$$$$



 28 31  0  0  0  0  0  0  0  0999 V2000
  -23.5007   -4.6231   10.9044 C   0  0  0  0  0  0  0  0  0  0  0  0
  -25.5450   -5.0361    3.3943 C   0  0  0  0  0  0  0  0  0  0  0  0
  -24.5595   -4.6367    4.4523 C   0  0  0  0  0  0  0  0  0  0  0  0
  -23.2699   -3.9757    4.0650 C   0  0  0  0  0  0  0  0  0  0  0  0
  -22.2844   -3.5764    5.1230 C   0  0  0  0  0  0  0  0  0  0  0  0
  -22.5885   -3.8381    6.5683 C   0  0  0  0  0  0  0  0  0  0  0  0
  -21.6030   -3.4388    7.6263 C   0  0  0  0  0  0  0  0  0  0  0  0
  -21.9071   -3.7004    9.0716 C   0  0  0  0  0  0  0  0  0  0  0  0
  -23.1967   -4.3615    9.4590 C   0  0  0  0  0  0  0  0  0  0  0  0
  -24.1822   -4.7608    8.4010 C   0  0  0  0  0  0  0  0  0  0  0  0
  -23.8780   -4.4991    6.9556 C   0  0  0  0  0  0  0  0  0  0  0  0
  -24.8635   -4.8984    5.8976 N   0  0  0  0  0  0  0  0  0  0  0  0
  -25.4717   -5.4218    8.7884 O   0  0  0  0  0  0  0  0  0  0  0  0
  -23.1259   -5.9369   11.5237 C   0  0  0  0  0  0  0  0  0  0  0  0
  -21.7849   -6.1037   12.1748 C   0  0  0  0  0  0  0  0  0  0  0  0
  -21.4100   -7.4174   12.7942 C   0  0  0  0  0  0  0  0  0  0  0  0
  -22.3762   -8.5643   12.7625 C   0  0  0  0  0  0  0  0  0  0  0  0
  -23.7172   -8.3975   12.1114 C   0  0  0  0  0  0  0  0  0  0  0  0
  -24.0921   -7.0838   11.4921 C   0  0  0  0  0  0  0  0  0  0  0  0
  -24.1796   -3.5711   11.7304 N   0  0  0  0  0  0  0  0  0  0  0  0
  -23.8740   -3.4539   13.1943 C   0  0  0  0  0  0  0  0  0  0  0  0
  -24.5142   -4.3944   14.1717 C   0  0  0  0  0  0  0  0  0  0  0  0
  -24.2086   -4.2772   15.6356 C   0  0  0  0  0  0  0  0  0  0  0  0
  -23.2627   -3.2195   16.1219 C   0  0  0  0  0  0  0  0  0  0  0  0
  -22.6225   -2.2790   15.1444 C   0  0  0  0  0  0  0  0  0  0  0  0
  -22.9281   -2.3962   13.6806 C   0  0  0  0  0  0  0  0  0  0  0  0
  -21.6766   -1.2213   15.6308 Cl  0  0  0  0  0  0  0  0  0  0  0  0
  -22.9571   -3.1023   17.5858 Cl  0  0  0  0  0  0  0  0  0  0  0  0
  2  3  1  0  0  0
  3  4  2  0  0  0
  4  5  1  0  0  0
  5  6  2  0  0  0
  6  7  1  0  0  0
  7  8  2  0  0  0
  8  9  1  0  0  0
  9 10  2  0  0  0
 10 11  1  0  0  0
 11 12  2  0  0  0
 10 13  1  0  0  0
  9  1  1  0  0  0
  1 14  1  0  0  0
 14 15  2  0  0  0
 15 16  1  0  0  0
 16 17  2  0  0  0
 17 18  1  0  0  0
 18 19  2  0  0  0
  1 20  1  0  0  0
 20 21  1  0  0  0
 21 22  2  0  0  0
 22 23  1  0  0  0
 23 24  2  0  0  0
 24 25  1  0  0  0
 25 26  2  0  0  0
 25 27  1  0  0  0
 24 28  1  0  0  0
 12  3  1  0  0  0
 11  6  1  0  0  0
 19 14  1  0  0  0
 26 21  1  0  0  0
M  END
> <minimizedAffinity>
-9.88991

$$$$



 27 29  0  0  0  0  0  0  0  0999 V2000
  -21.2148   -3.7821    5.2446 N   0  0  0  0  0  0  0  0  0  0  0  0
  -22.0936   -3.5461    6.4371 C   0  0  0  0  0  0  0  0  0  0  0  0
  -23.2203   -5.5929    7.5735 N   0  0  0  0  0  0  0  0  0  0  0  0
  -22.1384   -4.5542    7.5470 C   0  0  0  0  0  0  0  0  0  0  0  0
  -21.1013   -4.5236    8.6303 O   0  0  0  0  0  0  0  0  0  0  0  0
  -23.3994   -9.6252   12.0129 C   0  0  0  0  0  0  0  0  0  0  0  0
  -23.3546   -8.6172   10.9030 C   0  0  0  0  0  0  0  0  0  0  0  0
  -22.7459   -8.9828    9.5818 C   0  0  0  0  0  0  0  0  0  0  0  0
  -22.7011   -7.9747    8.4720 C   0  0  0  0  0  0  0  0  0  0  0  0
  -23.2650   -6.6010    8.6834 C   0  0  0  0  0  0  0  0  0  0  0  0
  -23.8737   -6.2353   10.0046 C   0  0  0  0  0  0  0  0  0  0  0  0
  -23.9185   -7.2434   11.1144 C   0  0  0  0  0  0  0  0  0  0  0  0
  -24.4377   -4.8615   10.2161 Cl  0  0  0  0  0  0  0  0  0  0  0  0
  -22.0924   -8.3405    7.1506 C   0  0  0  0  0  0  0  0  0  0  0  0
  -21.8175   -4.2277    3.9453 C   0  0  0  0  0  0  0  0  0  0  0  0
  -21.0385   -4.0900    2.6709 C   0  0  0  0  0  0  0  0  0  0  0  0
  -21.1122   -5.1646    1.6269 C   0  0  0  0  0  0  0  0  0  0  0  0
  -20.3332   -5.0269    0.3525 C   0  0  0  0  0  0  0  0  0  0  0  0
  -19.4804   -3.8146    0.1220 C   0  0  0  0  0  0  0  0  0  0  0  0
  -19.4066   -2.7400    1.1659 C   0  0  0  0  0  0  0  0  0  0  0  0
  -20.1857   -2.8777    2.4404 C   0  0  0  0  0  0  0  0  0  0  0  0
  -18.7014   -3.6769   -1.1524 F   0  0  0  0  0  0  0  0  0  0  0  0
  -23.1992   -4.8111    3.9204 C   0  0  0  0  0  0  0  0  0  0  0  0
  -24.4680   -4.0611    3.6420 C   0  0  0  0  0  0  0  0  0  0  0  0
  -25.6076   -5.0334    3.7191 C   0  0  0  0  0  0  0  0  0  0  0  0
  -25.0431   -6.3844    4.0452 C   0  0  0  0  0  0  0  0  0  0  0  0
  -23.5546   -6.2469    4.1696 S   0  0  0  0  0  0  0  0  0  0  0  0
  6  7  1  0  0  0
  7  8  2  0  0  0
  8  9  1  0  0  0
  9 10  2  0  0  0
 10 11  1  0  0  0
 11 12  2  0  0  0
 11 13  1  0  0  0
 10  3  1  0  0  0
  3  4  1  0  0  0
  4  5  2  0  0  0
  4  2  1  0  0  0
  2  1  1  0  0  0
 15  1  1  0  0  0
 15 16  1  0  0  0
 16 17  2  0  0  0
 17 18  1  0  0  0
 18 19  2  0  0  0
 19 20  1  0  0  0
 20 21  2  0  0  0
 19 22  1  0  0  0
 15 23  1  0  0  0
 23 24  2  0  0  0
 24 25  1  0  0  0
 25 26  2  0  0  0
 26 27  1  0  0  0
  9 14  1  0  0  0
 12  7  1  0  0  0
 21 16  1  0  0  0
 27 23  1  0  0  0
M  END
> <minimizedAffinity>
-9.79652

$$$$



 25 27  0  0  0  0  0  0  0  0999 V2000
  -22.7483   -5.4385   10.4682 C   0  0  0  0  0  0  0  0  0  0  0  0
  -22.4086   -3.2061    6.5758 C   0  0  0  0  0  0  0  0  0  0  0  0
  -23.7604   -3.5212    7.1442 C   0  0  0  0  0  0  0  0  0  0  0  0
  -23.8737   -4.2654    8.4417 C   0  0  0  0  0  0  0  0  0  0  0  0
  -22.6350   -4.6944    9.1708 C   0  0  0  0  0  0  0  0  0  0  0  0
  -21.2832   -4.3793    8.6024 C   0  0  0  0  0  0  0  0  0  0  0  0
  -21.1699   -3.6351    7.3049 C   0  0  0  0  0  0  0  0  0  0  0  0
  -23.2716   -4.7419   11.6892 C   0  0  0  0  0  0  0  0  0  0  0  0
  -23.8610   -5.5407   12.8137 C   0  0  0  0  0  0  0  0  0  0  0  0
  -24.3844   -4.8441   14.0347 C   0  0  0  0  0  0  0  0  0  0  0  0
  -24.3184   -3.3486   14.1312 C   0  0  0  0  0  0  0  0  0  0  0  0
  -23.7290   -2.5498   13.0067 C   0  0  0  0  0  0  0  0  0  0  0  0
  -23.2056   -3.2465   11.7856 C   0  0  0  0  0  0  0  0  0  0  0  0
  -22.3382   -6.8793   10.5448 N   0  0  0  0  0  0  0  0  0  0  0  0
  -23.1297   -7.9242    9.8155 C   0  0  0  0  0  0  0  0  0  0  0  0
  -24.4566   -8.3711   10.3535 S   0  0  0  0  0  0  0  0  0  0  0  0
  -22.5942   -8.5221    8.5483 N   0  0  0  0  0  0  0  0  0  0  0  0
  -22.9844   -7.9413    7.2215 C   0  0  0  0  0  0  0  0  0  0  0  0
  -24.2482   -7.1433    7.0947 C   0  0  0  0  0  0  0  0  0  0  0  0
  -24.6385   -6.5624    5.7680 C   0  0  0  0  0  0  0  0  0  0  0  0
  -23.7650   -6.7797    4.5680 C   0  0  0  0  0  0  0  0  0  0  0  0
  -22.5013   -7.5777    4.6948 C   0  0  0  0  0  0  0  0  0  0  0  0
  -22.1110   -8.1585    6.0216 C   0  0  0  0  0  0  0  0  0  0  0  0
  -20.8472   -8.9565    6.1484 Cl  0  0  0  0  0  0  0  0  0  0  0  0
  -25.9023   -5.7644    5.6411 Cl  0  0  0  0  0  0  0  0  0  0  0  0
  2  3  2  0  0  0
  3  4  1  0  0  0
  4  5  2  0  0  0
  5  6  1  0  0  0
  6  7  2  0  0  0
  5  1  1  0  0  0
  1  8  1  0  0  0
  8  9  2  0  0  0
  9 10  1  0  0  0
 10 11  2  0  0  0
 11 12  1  0  0  0
 12 13  2  0  0  0
  1 14  1  0  0  0
 14 15  1  0  0  0
 15 16  2  0  0  0
 15 17  1  0  0  0
 17 18  1  0  0  0
 18 19  2  0  0  0
 19 20  1  0  0  0
 20 21  2  0  0  0
 21 22  1  0  0  0
 22 23  2  0  0  0
 23 24  1  0  0  0
 20 25  1  0  0  0
  7  2  1  0  0  0
 13  8  1  0  0  0
 23 18  1  0  0  0
M  END
> <minimizedAffinity>
-8.65454

$$$$



 26 30  0  0  0  0  0  0  0  0999 V2000
  -23.6948   -4.9064   11.2823 C   0  0  0  0  0  0  0  0  0  0  0  0
  -21.1804   -3.4579    7.3713 C   0  0  0  0  0  0  0  0  0  0  0  0
  -21.9940   -3.4896    6.1116 C   0  0  0  0  0  0  0  0  0  0  0  0
  -23.4254   -3.9362    6.1542 C   0  0  0  0  0  0  0  0  0  0  0  0
  -24.0430   -4.3511    7.4566 C   0  0  0  0  0  0  0  0  0  0  0  0
  -23.2294   -4.3195    8.7163 C   0  0  0  0  0  0  0  0  0  0  0  0
  -21.7981   -3.8729    8.6736 C   0  0  0  0  0  0  0  0  0  0  0  0
  -24.1031   -4.7828    9.8442 C   0  0  0  0  0  0  0  0  0  0  0  0
  -25.4567   -5.1008    9.2815 C   0  0  0  0  0  0  0  0  0  0  0  0
  -25.4196   -4.8340    7.8059 N   0  0  0  0  0  0  0  0  0  0  0  0
  -23.7204   -3.7016   12.1754 C   0  0  0  0  0  0  0  0  0  0  0  0
  -23.5737   -2.2750   11.7359 C   0  0  0  0  0  0  0  0  0  0  0  0
  -23.6599   -1.4036   12.9538 N   0  0  0  0  0  0  0  0  0  0  0  0
  -23.8599   -2.2917   14.1460 C   0  0  0  0  0  0  0  0  0  0  0  0
  -23.8973   -3.7120   13.6650 C   0  0  0  0  0  0  0  0  0  0  0  0
  -24.0876   -4.8311   14.6453 C   0  0  0  0  0  0  0  0  0  0  0  0
  -24.2405   -4.5301   16.1069 C   0  0  0  0  0  0  0  0  0  0  0  0
  -24.2031   -3.1098   16.5880 C   0  0  0  0  0  0  0  0  0  0  0  0
  -24.0128   -1.9906   15.6075 C   0  0  0  0  0  0  0  0  0  0  0  0
  -23.2608   -6.2349   11.8271 C   0  0  0  0  0  0  0  0  0  0  0  0
  -21.8636   -6.4140   12.3424 C   0  0  0  0  0  0  0  0  0  0  0  0
  -21.4296   -7.7425   12.8873 C   0  0  0  0  0  0  0  0  0  0  0  0
  -22.3930   -8.8919   12.9169 C   0  0  0  0  0  0  0  0  0  0  0  0
  -23.7903   -8.7127   12.4016 C   0  0  0  0  0  0  0  0  0  0  0  0
  -24.2243   -7.3842   11.8568 C   0  0  0  0  0  0  0  0  0  0  0  0
  -21.9590  -10.2203   13.4618 Br  0  0  0  0  0  0  0  0  0  0  0  0
  2  3  2  0  0  0
  3  4  1  0  0  0
  4  5  2  0  0  0
  5  6  1  0  0  0
  6  7  2  0  0  0
  6  8  1  0  0  0
  8  9  2  0  0  0
  9 10  1  0  0  0
  8  1  1  0  0  0
  1 20  1  0  0  0
 20 21  2  0  0  0
 21 22  1  0  0  0
 22 23  2  0  0  0
 23 24  1  0  0  0
 24 25  2  0  0  0
 23 26  1  0  0  0
  1 11  1  0  0  0
 11 12  2  0  0  0
 12 13  1  0  0  0
 13 14  1  0  0  0
 14 15  2  0  0  0
 15 16  1  0  0  0
 16 17  2  0  0  0
 17 18  1  0  0  0
 18 19  2  0  0  0
  7  2  1  0  0  0
 10  5  1  0  0  0
 25 20  1  0  0  0
 15 11  1  0  0  0
 19 14  1  0  0  0
M  END
> <minimizedAffinity>
-9.37992

$$$$



 28 32  0  0  0  0  0  0  0  0999 V2000
  -23.6701   -3.8352    4.4319 C   0  0  0  0  0  0  0  0  0  0  0  0
  -24.8082   -4.4165    3.6466 C   0  0  0  0  0  0  0  0  0  0  0  0
  -25.7641   -5.3677    4.3035 C   0  0  0  0  0  0  0  0  0  0  0  0
  -25.5818   -5.7375    5.7457 C   0  0  0  0  0  0  0  0  0  0  0  0
  -24.4437   -5.1562    6.5310 C   0  0  0  0  0  0  0  0  0  0  0  0
  -23.4878   -4.2051    5.8741 C   0  0  0  0  0  0  0  0  0  0  0  0
  -24.2614   -5.5261    7.9733 C   0  0  0  0  0  0  0  0  0  0  0  0
  -24.1465   -6.9684    8.3689 N   0  0  0  0  0  0  0  0  0  0  0  0
  -23.9642   -7.3383    9.8112 C   0  0  0  0  0  0  0  0  0  0  0  0
  -23.8493   -8.7805   10.2068 C   0  0  0  0  0  0  0  0  0  0  0  0
  -23.6671   -9.1504   11.6490 C   0  0  0  0  0  0  0  0  0  0  0  0
  -23.5998   -8.0779   12.6956 C   0  0  0  0  0  0  0  0  0  0  0  0
  -23.7147   -6.6356   12.2999 C   0  0  0  0  0  0  0  0  0  0  0  0
  -23.8969   -6.2658   10.8577 C   0  0  0  0  0  0  0  0  0  0  0  0
  -24.0119   -4.8235   10.4620 C   0  0  0  0  0  0  0  0  0  0  0  0
  -23.9445   -3.7510   11.5086 C   0  0  0  0  0  0  0  0  0  0  0  0
  -23.7623   -4.1209   12.9509 C   0  0  0  0  0  0  0  0  0  0  0  0
  -23.6474   -5.5632   13.3465 C   0  0  0  0  0  0  0  0  0  0  0  0
  -24.1941   -4.4536    9.0198 N   0  0  0  0  0  0  0  0  0  0  0  0
  -22.7141   -2.8840    3.7750 O   0  0  0  0  0  0  0  0  0  0  0  0
  -21.2691   -3.2573    3.6248 C   0  0  0  0  0  0  0  0  0  0  0  0
  -20.4707   -5.3683    0.3604 C   0  0  0  0  0  0  0  0  0  0  0  0
  -19.6453   -4.3865   -0.4173 C   0  0  0  0  0  0  0  0  0  0  0  0
  -19.3611   -3.0283    0.1525 C   0  0  0  0  0  0  0  0  0  0  0  0
  -19.9023   -2.6519    1.4998 C   0  0  0  0  0  0  0  0  0  0  0  0
  -20.7278   -3.6337    2.2774 C   0  0  0  0  0  0  0  0  0  0  0  0
  -21.0120   -4.9918    1.7078 C   0  0  0  0  0  0  0  0  0  0  0  0
  -19.6182   -1.2937    2.0695 F   0  0  0  0  0  0  0  0  0  0  0  0
 22 23  2  0  0  0
 23 24  1  0  0  0
 24 25  2  0  0  0
 25 26  1  0  0  0
 26 27  2  0  0  0
 26 21  1  0  0  0
 21 20  1  0  0  0
 20  1  1  0  0  0
  1  2  2  0  0  0
  2  3  1  0  0  0
  3  4  2  0  0  0
  4  5  1  0  0  0
  5  6  2  0  0  0
  5  7  1  0  0  0
  7  8  1  0  0  0
  8  9  1  0  0  0
  9 10  2  0  0  0
 10 11  1  0  0  0
 11 12  2  0  0  0
 12 13  1  0  0  0
 13 14  2  0  0  0
 14 15  1  0  0  0
 15 16  2  0  0  0
 16 17  1  0  0  0
 17 18  2  0  0  0
 15 19  1  0  0  0
 25 28  1  0  0  0
 27 22  1  0  0  0
  6  1  1  0  0  0
 19  7  1  0  0  0
 14  9  1  0  0  0
 18 13  1  0  0  0
M  END
> <minimizedAffinity>
-10.39984

$$$$



 30 34  0  0  0  0  0  0  0  0999 V2000
  -23.5901   -4.5942   12.0723 C   0  0  0  0  0  0  0  0  0  0  0  0
  -23.7711   -3.6340   10.9343 C   0  0  0  0  0  0  0  0  0  0  0  0
  -23.5798   -4.1006    9.5216 C   0  0  0  0  0  0  0  0  0  0  0  0
  -23.2077   -5.5275    9.2470 C   0  0  0  0  0  0  0  0  0  0  0  0
  -23.0267   -6.4877   10.3850 C   0  0  0  0  0  0  0  0  0  0  0  0
  -23.2179   -6.0211   11.7977 C   0  0  0  0  0  0  0  0  0  0  0  0
  -22.6545   -7.9146   10.1104 C   0  0  0  0  0  0  0  0  0  0  0  0
  -22.4632   -8.3813    8.6977 C   0  0  0  0  0  0  0  0  0  0  0  0
  -22.0911   -9.8082    8.4231 C   0  0  0  0  0  0  0  0  0  0  0  0
  -21.8998  -10.2748    7.0104 C   0  0  0  0  0  0  0  0  0  0  0  0
  -22.0808   -9.3146    5.8723 C   0  0  0  0  0  0  0  0  0  0  0  0
  -22.4530   -7.8876    6.1470 C   0  0  0  0  0  0  0  0  0  0  0  0
  -22.6442   -7.4210    7.5596 C   0  0  0  0  0  0  0  0  0  0  0  0
  -23.0164   -5.9941    7.8343 C   0  0  0  0  0  0  0  0  0  0  0  0
  -23.1974   -5.0339    6.6963 C   0  0  0  0  0  0  0  0  0  0  0  0
  -22.3848   -3.7742    6.6413 C   0  0  0  0  0  0  0  0  0  0  0  0
  -22.5658   -2.8140    5.5032 C   0  0  0  0  0  0  0  0  0  0  0  0
  -23.5593   -3.1134    4.4201 C   0  0  0  0  0  0  0  0  0  0  0  0
  -24.3719   -4.3731    4.4750 C   0  0  0  0  0  0  0  0  0  0  0  0
  -24.1910   -5.3333    5.6131 C   0  0  0  0  0  0  0  0  0  0  0  0
  -25.3655   -4.6725    3.3918 C   0  0  0  0  0  0  0  0  0  0  0  0
  -25.4696   -6.0603    2.8323 O   0  0  0  0  0  0  0  0  0  0  0  0
  -22.4735   -8.8749   11.2484 C   0  0  0  0  0  0  0  0  0  0  0  0
  -21.0945   -9.2149   11.7308 C   0  0  0  0  0  0  0  0  0  0  0  0
  -20.9136  -10.1752   12.8689 C   0  0  0  0  0  0  0  0  0  0  0  0
  -22.1116  -10.7954   13.5246 C   0  0  0  0  0  0  0  0  0  0  0  0
  -23.4907  -10.4554   13.0422 C   0  0  0  0  0  0  0  0  0  0  0  0
  -23.6716   -9.4951   11.9042 C   0  0  0  0  0  0  0  0  0  0  0  0
  -24.6887  -11.0756   13.6978 C   0  0  0  0  0  0  0  0  0  0  0  0
  -24.5270  -11.8632   14.9642 O   0  0  0  0  0  0  0  0  0  0  0  0
  1  2  2  0  0  0
  2  3  1  0  0  0
  3  4  2  0  0  0
  4  5  1  0  0  0
  5  6  2  0  0  0
  5  7  1  0  0  0
  7  8  2  0  0  0
  8  9  1  0  0  0
  9 10  2  0  0  0
 10 11  1  0  0  0
 11 12  2  0  0  0
 12 13  1  0  0  0
 13 14  2  0  0  0
 14 15  1  0  0  0
 15 16  2  0  0  0
 16 17  1  0  0  0
 17 18  2  0  0  0
 18 19  1  0  0  0
 19 20  2  0  0  0
 19 21  1  0  0  0
 21 22  1  0  0  0
  7 23  1  0  0  0
 23 24  2  0  0  0
 24 25  1  0  0  0
 25 26  2  0  0  0
 26 27  1  0  0  0
 27 28  2  0  0  0
 27 29  1  0  0  0
 29 30  1  0  0  0
  6  1  1  0  0  0
 14  4  1  0  0  0
 13  8  1  0  0  0
 20 15  1  0  0  0
 28 23  1  0  0  0
M  END
> <minimizedAffinity>
-5.68719

$$$$



 29 32  0  0  0  0  0  0  0  0999 V2000
  -21.8054   -7.6722   12.6798 C   0  0  0  0  0  0  0  0  0  0  0  0
  -22.0484   -8.6913   13.7532 C   0  0  0  0  0  0  0  0  0  0  0  0
  -22.4878  -10.0776   13.3856 C   0  0  0  0  0  0  0  0  0  0  0  0
  -22.6841  -10.4448   11.9446 C   0  0  0  0  0  0  0  0  0  0  0  0
  -22.4411   -9.4256   10.8711 C   0  0  0  0  0  0  0  0  0  0  0  0
  -22.0018   -8.0393   11.2387 C   0  0  0  0  0  0  0  0  0  0  0  0
  -22.7308  -11.0967   14.4591 Cl  0  0  0  0  0  0  0  0  0  0  0  0
  -21.7588   -7.0202   10.1653 N   0  0  0  0  0  0  0  0  0  0  0  0
  -22.9156   -6.2953    9.5435 C   0  0  0  0  0  0  0  0  0  0  0  0
  -24.3154   -6.5897    9.9953 O   0  0  0  0  0  0  0  0  0  0  0  0
  -22.6726   -5.2762    8.4701 C   0  0  0  0  0  0  0  0  0  0  0  0
  -21.6046   -4.2383    8.6493 C   0  0  0  0  0  0  0  0  0  0  0  0
  -21.3617   -3.2191    7.5759 C   0  0  0  0  0  0  0  0  0  0  0  0
  -22.1867   -3.2379    6.3232 C   0  0  0  0  0  0  0  0  0  0  0  0
  -23.2547   -4.2758    6.1441 C   0  0  0  0  0  0  0  0  0  0  0  0
  -23.4976   -5.2950    7.2176 C   0  0  0  0  0  0  0  0  0  0  0  0
  -24.5656   -6.3329    7.0384 C   0  0  0  0  0  0  0  0  0  0  0  0
  -25.3907   -6.3517    5.7858 C   0  0  0  0  0  0  0  0  0  0  0  0
  -25.1477   -5.3325    4.7123 C   0  0  0  0  0  0  0  0  0  0  0  0
  -24.0797   -4.2946    4.8915 C   0  0  0  0  0  0  0  0  0  0  0  0
  -23.8367   -3.2754    3.8180 Cl  0  0  0  0  0  0  0  0  0  0  0  0
  -21.3661   -6.2859   13.0474 C   0  0  0  0  0  0  0  0  0  0  0  0
  -19.9091   -5.9884   13.2445 O   0  0  0  0  0  0  0  0  0  0  0  0
  -24.4188   -3.0195   13.5590 C   0  0  0  0  0  0  0  0  0  0  0  0
  -23.4321   -2.9540   12.4310 C   0  0  0  0  0  0  0  0  0  0  0  0
  -22.4146   -4.0428   12.2605 C   0  0  0  0  0  0  0  0  0  0  0  0
  -22.3836   -5.1971   13.2179 C   0  0  0  0  0  0  0  0  0  0  0  0
  -23.3702   -5.2626   14.3459 C   0  0  0  0  0  0  0  0  0  0  0  0
  -24.3878   -4.1738   14.5165 C   0  0  0  0  0  0  0  0  0  0  0  0
 24 25  2  0  0  0
 25 26  1  0  0  0
 26 27  2  0  0  0
 27 28  1  0  0  0
 28 29  2  0  0  0
 27 22  1  0  0  0
 22  1  1  0  0  0
  1  2  2  0  0  0
  2  3  1  0  0  0
  3  4  2  0  0  0
  4  5  1  0  0  0
  5  6  2  0  0  0
  6  8  1  0  0  0
  8  9  1  0  0  0
  9 10  2  0  0  0
  9 11  1  0  0  0
 11 12  2  0  0  0
 12 13  1  0  0  0
 13 14  2  0  0  0
 14 15  1  0  0  0
 15 16  2  0  0  0
 16 17  1  0  0  0
 17 18  2  0  0  0
 18 19  1  0  0  0
 19 20  2  0  0  0
 20 21  1  0  0  0
  3  7  1  0  0  0
 22 23  1  0  0  0
 29 24  1  0  0  0
  6  1  1  0  0  0
 16 11  1  0  0  0
 20 15  1  0  0  0
M  END
> <minimizedAffinity>
-10.32949

$$$$



 26 28  0  0  0  0  0  0  0  0999 V2000
  -23.9248   -6.3173   10.8424 C   0  0  0  0  0  0  0  0  0  0  0  0
  -23.2066   -7.4997   10.2627 C   0  0  0  0  0  0  0  0  0  0  0  0
  -22.4883   -8.6820    9.6831 Cl  0  0  0  0  0  0  0  0  0  0  0  0
  -21.9001   -6.7771   10.4077 Cl  0  0  0  0  0  0  0  0  0  0  0  0
  -24.5130   -8.2222   10.1177 Cl  0  0  0  0  0  0  0  0  0  0  0  0
  -23.6157   -4.4494   12.6216 C   0  0  0  0  0  0  0  0  0  0  0  0
  -23.8228   -3.4069   11.5630 O   0  0  0  0  0  0  0  0  0  0  0  0
  -23.6667   -5.9046   12.2612 N   0  0  0  0  0  0  0  0  0  0  0  0
  -24.8574   -1.5761   16.7692 C   0  0  0  0  0  0  0  0  0  0  0  0
  -23.9784   -2.6000   16.1142 C   0  0  0  0  0  0  0  0  0  0  0  0
  -22.8414   -3.2112   16.8780 C   0  0  0  0  0  0  0  0  0  0  0  0
  -21.9624   -4.2352   16.2231 C   0  0  0  0  0  0  0  0  0  0  0  0
  -22.2205   -4.6479   14.8043 C   0  0  0  0  0  0  0  0  0  0  0  0
  -23.3576   -4.0367   14.0404 C   0  0  0  0  0  0  0  0  0  0  0  0
  -24.2366   -3.0127   14.6953 C   0  0  0  0  0  0  0  0  0  0  0  0
  -24.9012   -5.5475   10.0032 N   0  0  0  0  0  0  0  0  0  0  0  0
  -24.4988   -5.0578    8.6436 C   0  0  0  0  0  0  0  0  0  0  0  0
  -23.3287   -4.1309    8.4964 C   0  0  0  0  0  0  0  0  0  0  0  0
  -22.9264   -3.6411    7.1369 C   0  0  0  0  0  0  0  0  0  0  0  0
  -23.6941   -4.0783    5.9246 C   0  0  0  0  0  0  0  0  0  0  0  0
  -23.2917   -3.5885    4.5652 C   0  0  0  0  0  0  0  0  0  0  0  0
  -24.0594   -4.0257    3.3530 C   0  0  0  0  0  0  0  0  0  0  0  0
  -25.2295   -4.9526    3.5002 C   0  0  0  0  0  0  0  0  0  0  0  0
  -25.6319   -5.4424    4.8597 C   0  0  0  0  0  0  0  0  0  0  0  0
  -24.8642   -5.0052    6.0719 C   0  0  0  0  0  0  0  0  0  0  0  0
  -25.2665   -5.4950    7.4315 C   0  0  0  0  0  0  0  0  0  0  0  0
  9 10  1  0  0  0
 10 11  2  0  0  0
 11 12  1  0  0  0
 12 13  2  0  0  0
 13 14  1  0  0  0
 14 15  2  0  0  0
 14  6  1  0  0  0
  6  7  2  0  0  0
  6  8  1  0  0  0
  1  8  1  0  0  0
  1  2  1  0  0  0
  2  3  1  0  0  0
  2  4  1  0  0  0
  2  5  1  0  0  0
  1 16  1  0  0  0
 16 17  1  0  0  0
 17 18  2  0  0  0
 18 19  1  0  0  0
 19 20  2  0  0  0
 20 21  1  0  0  0
 21 22  2  0  0  0
 22 23  1  0  0  0
 23 24  2  0  0  0
 24 25  1  0  0  0
 25 26  2  0  0  0
 15 10  1  0  0  0
 26 17  1  0  0  0
 25 20  1  0  0  0
M  END
> <minimizedAffinity>
-9.12013

$$$$



 28 30  0  0  0  0  0  0  0  0999 V2000
  -22.9290   -6.9738    7.4884 C   0  0  0  0  0  0  0  0  0  0  0  0
  -24.3415   -6.5230    7.7158 C   0  0  0  0  0  0  0  0  0  0  0  0
  -24.6346   -5.4574    8.7299 C   0  0  0  0  0  0  0  0  0  0  0  0
  -23.5153   -4.8424    9.5167 C   0  0  0  0  0  0  0  0  0  0  0  0
  -22.1028   -5.2932    9.2893 C   0  0  0  0  0  0  0  0  0  0  0  0
  -21.8097   -6.3589    8.2751 C   0  0  0  0  0  0  0  0  0  0  0  0
  -22.7974   -7.7478    5.0118 C   0  0  0  0  0  0  0  0  0  0  0  0
  -22.6359   -8.0395    6.4743 C   0  0  0  0  0  0  0  0  0  0  0  0
  -24.1613   -3.6757    3.6669 C   0  0  0  0  0  0  0  0  0  0  0  0
  -22.7185   -3.9102    4.0036 C   0  0  0  0  0  0  0  0  0  0  0  0
  -22.2639   -5.2675    4.4519 C   0  0  0  0  0  0  0  0  0  0  0  0
  -23.2521   -6.3904    4.5635 C   0  0  0  0  0  0  0  0  0  0  0  0
  -24.6949   -6.1561    4.2267 C   0  0  0  0  0  0  0  0  0  0  0  0
  -25.1495   -4.7987    3.7784 C   0  0  0  0  0  0  0  0  0  0  0  0
  -25.3453   -6.6170    4.2260 Cl  0  0  0  0  0  0  0  0  0  0  0  0
  -20.8210   -5.5019    4.7887 F   0  0  0  0  0  0  0  0  0  0  0  0
  -23.8084   -3.7768   10.5308 C   0  0  0  0  0  0  0  0  0  0  0  0
  -23.1714   -3.8369   11.8875 S   0  0  0  0  0  0  0  0  0  0  0  0
  -24.0078   -4.1365   13.0961 C   0  0  0  0  0  0  0  0  0  0  0  0
  -24.3129   -5.5585   13.4633 N   0  0  0  0  0  0  0  0  0  0  0  0
  -24.5390   -3.0141   13.9375 N   0  0  0  0  0  0  0  0  0  0  0  0
  -23.7817   -6.6809   12.6219 C   0  0  0  0  0  0  0  0  0  0  0  0
  -22.3388   -7.0776   12.7251 C   0  0  0  0  0  0  0  0  0  0  0  0
  -21.8075   -8.2001   11.8837 C   0  0  0  0  0  0  0  0  0  0  0  0
  -22.7192   -8.9258   10.9391 C   0  0  0  0  0  0  0  0  0  0  0  0
  -24.1622   -8.5291   10.8360 C   0  0  0  0  0  0  0  0  0  0  0  0
  -24.6934   -7.4066   11.6774 C   0  0  0  0  0  0  0  0  0  0  0  0
  -22.1880  -10.0482   10.0978 F   0  0  0  0  0  0  0  0  0  0  0  0
  9 10  2  0  0  0
 10 11  1  0  0  0
 11 12  2  0  0  0
 12 13  1  0  0  0
 13 14  2  0  0  0
 13 15  1  0  0  0
 12  7  1  0  0  0
  7  8  2  0  0  0
  8  1  1  0  0  0
  1  2  2  0  0  0
  2  3  1  0  0  0
  3  4  2  0  0  0
  4  5  1  0  0  0
  5  6  2  0  0  0
  4 17  1  0  0  0
 17 18  1  0  0  0
 18 19  1  0  0  0
 19 20  2  0  0  0
 20 22  1  0  0  0
 22 23  2  0  0  0
 23 24  1  0  0  0
 24 25  2  0  0  0
 25 26  1  0  0  0
 26 27  2  0  0  0
 25 28  1  0  0  0
 19 21  1  0  0  0
 11 16  1  0  0  0
 14  9  1  0  0  0
  6  1  1  0  0  0
 27 22  1  0  0  0
M  END
> <minimizedAffinity>
-8.47490

$$$$



 27 28  0  0  0  0  0  0  0  0999 V2000
  -21.9705   -5.8896    4.0711 C   0  0  0  0  0  0  0  0  0  0  0  0
  -23.1252   -4.9454    3.9123 C   0  0  0  0  0  0  0  0  0  0  0  0
  -24.2799   -4.0013    3.7535 Cl  0  0  0  0  0  0  0  0  0  0  0  0
  -23.7784   -5.9041    2.9614 Cl  0  0  0  0  0  0  0  0  0  0  0  0
  -22.4721   -3.9867    4.8632 Cl  0  0  0  0  0  0  0  0  0  0  0  0
  -22.1141   -8.0302    5.5364 C   0  0  0  0  0  0  0  0  0  0  0  0
  -22.7092   -8.7806    4.3819 O   0  0  0  0  0  0  0  0  0  0  0  0
  -21.7448   -6.5848    5.3810 N   0  0  0  0  0  0  0  0  0  0  0  0
  -22.3824   -8.1051    8.1195 C   0  0  0  0  0  0  0  0  0  0  0  0
  -21.8884   -8.7254    6.8463 C   0  0  0  0  0  0  0  0  0  0  0  0
  -24.5418   -4.1586    8.0096 C   0  0  0  0  0  0  0  0  0  0  0  0
  -23.1243   -4.2247    8.4956 C   0  0  0  0  0  0  0  0  0  0  0  0
  -22.4045   -5.5401    8.5322 C   0  0  0  0  0  0  0  0  0  0  0  0
  -23.1022   -6.7896    8.0829 C   0  0  0  0  0  0  0  0  0  0  0  0
  -24.5197   -6.7236    7.5969 C   0  0  0  0  0  0  0  0  0  0  0  0
  -25.2395   -5.4081    7.5603 C   0  0  0  0  0  0  0  0  0  0  0  0
  -21.0416   -6.1386    2.9200 N   0  0  0  0  0  0  0  0  0  0  0  0
  -20.5383   -4.9879    2.0999 C   0  0  0  0  0  0  0  0  0  0  0  0
  -20.7947   -4.9511    0.6224 C   0  0  0  0  0  0  0  0  0  0  0  0
  -20.2914   -3.8004   -0.1977 C   0  0  0  0  0  0  0  0  0  0  0  0
  -19.5317   -2.6864    0.4597 C   0  0  0  0  0  0  0  0  0  0  0  0
  -19.2753   -2.7233    1.9372 C   0  0  0  0  0  0  0  0  0  0  0  0
  -19.7786   -3.8740    2.7573 C   0  0  0  0  0  0  0  0  0  0  0  0
  -18.5157   -1.6094    2.5946 C   0  0  0  0  0  0  0  0  0  0  0  0
  -17.7560   -0.4956    3.2519 F   0  0  0  0  0  0  0  0  0  0  0  0
  -19.4787   -0.6134    2.0198 F   0  0  0  0  0  0  0  0  0  0  0  0
  -17.5526   -2.6054    3.1693 F   0  0  0  0  0  0  0  0  0  0  0  0
 11 12  2  0  0  0
 12 13  1  0  0  0
 13 14  2  0  0  0
 14 15  1  0  0  0
 15 16  2  0  0  0
 14  9  1  0  0  0
  9 10  2  0  0  0
 10  6  1  0  0  0
  6  7  2  0  0  0
  6  8  1  0  0  0
  1  8  1  0  0  0
  1  2  1  0  0  0
  2  3  1  0  0  0
  2  4  1  0  0  0
  2  5  1  0  0  0
  1 17  1  0  0  0
 17 18  1  0  0  0
 18 19  2  0  0  0
 19 20  1  0  0  0
 20 21  2  0  0  0
 21 22  1  0  0  0
 22 23  2  0  0  0
 22 24  1  0  0  0
 24 25  1  0  0  0
 24 26  1  0  0  0
 24 27  1  0  0  0
 16 11  1  0  0  0
 23 18  1  0  0  0
M  END
> <minimizedAffinity>
-9.11530

$$$$



 26 28  0  0  0  0  0  0  0  0999 V2000
  -21.7388   -7.0668   11.4921 C   0  0  0  0  0  0  0  0  0  0  0  0
  -21.6624   -7.7806   12.8091 C   0  0  0  0  0  0  0  0  0  0  0  0
  -22.1453   -9.1960   12.9243 C   0  0  0  0  0  0  0  0  0  0  0  0
  -22.7046   -9.8978   11.7223 C   0  0  0  0  0  0  0  0  0  0  0  0
  -22.7810   -9.1840   10.4052 C   0  0  0  0  0  0  0  0  0  0  0  0
  -22.2981   -7.7685   10.2900 C   0  0  0  0  0  0  0  0  0  0  0  0
  -22.3745   -7.0548    8.9730 C   0  0  0  0  0  0  0  0  0  0  0  0
  -21.6077   -7.5740    7.7930 O   0  0  0  0  0  0  0  0  0  0  0  0
  -23.2177   -5.8219    8.8359 N   0  0  0  0  0  0  0  0  0  0  0  0
  -23.2942   -5.1081    7.5188 C   0  0  0  0  0  0  0  0  0  0  0  0
  -24.3701   -5.4618    6.5354 C   0  0  0  0  0  0  0  0  0  0  0  0
  -24.4466   -4.7480    5.2183 C   0  0  0  0  0  0  0  0  0  0  0  0
  -23.4470   -3.6805    4.8847 C   0  0  0  0  0  0  0  0  0  0  0  0
  -22.3710   -3.3268    5.8682 C   0  0  0  0  0  0  0  0  0  0  0  0
  -22.2946   -4.0406    7.1852 C   0  0  0  0  0  0  0  0  0  0  0  0
  -21.2186   -3.6869    8.1687 Cl  0  0  0  0  0  0  0  0  0  0  0  0
  -25.3697   -6.5293    6.8690 Cl  0  0  0  0  0  0  0  0  0  0  0  0
  -21.2559   -5.6514   11.3770 N   0  0  0  0  0  0  0  0  0  0  0  0
  -21.8199   -2.3561   15.3548 C   0  0  0  0  0  0  0  0  0  0  0  0
  -22.2939   -2.8963   14.0382 C   0  0  0  0  0  0  0  0  0  0  0  0
  -23.5240   -2.3291   13.3939 C   0  0  0  0  0  0  0  0  0  0  0  0
  -23.9981   -2.8693   12.0773 C   0  0  0  0  0  0  0  0  0  0  0  0
  -23.2421   -3.9767   11.4050 C   0  0  0  0  0  0  0  0  0  0  0  0
  -22.0119   -4.5440   12.0493 C   0  0  0  0  0  0  0  0  0  0  0  0
  -21.5379   -4.0038   13.3659 C   0  0  0  0  0  0  0  0  0  0  0  0
  -20.3078   -4.5710   14.0102 C   0  0  0  0  0  0  0  0  0  0  0  0
 19 20  1  0  0  0
 20 21  2  0  0  0
 21 22  1  0  0  0
 22 23  2  0  0  0
 23 24  1  0  0  0
 24 25  2  0  0  0
 25 26  1  0  0  0
 24 18  1  0  0  0
 18  1  1  0  0  0
  1  2  2  0  0  0
  2  3  1  0  0  0
  3  4  2  0  0  0
  4  5  1  0  0  0
  5  6  2  0  0  0
  6  7  1  0  0  0
  7  8  2  0  0  0
  7  9  1  0  0  0
  9 10  1  0  0  0
 10 11  2  0  0  0
 11 12  1  0  0  0
 12 13  2  0  0  0
 13 14  1  0  0  0
 14 15  2  0  0  0
 15 16  1  0  0  0
 11 17  1  0  0  0
 25 20  1  0  0  0
  6  1  1  0  0  0
 15 10  1  0  0  0
M  END
> <minimizedAffinity>
-8.41165

$$$$



 23 24  0  0  0  0  0  0  0  0999 V2000
  -24.5090   -4.8065   11.1899 N   0  0  0  0  0  0  0  0  0  0  0  0
  -23.9709   -4.6230    9.8019 C   0  0  0  0  0  0  0  0  0  0  0  0
  -22.4956   -4.4604    9.5849 O   0  0  0  0  0  0  0  0  0  0  0  0
  -24.9080   -4.6022    8.6308 N   0  0  0  0  0  0  0  0  0  0  0  0
  -22.1128   -6.1550   14.0517 C   0  0  0  0  0  0  0  0  0  0  0  0
  -23.0500   -6.1341   12.8807 C   0  0  0  0  0  0  0  0  0  0  0  0
  -23.5718   -4.8274   12.3610 C   0  0  0  0  0  0  0  0  0  0  0  0
  -23.1566   -3.5416   13.0123 C   0  0  0  0  0  0  0  0  0  0  0  0
  -22.2194   -3.5625   14.1832 C   0  0  0  0  0  0  0  0  0  0  0  0
  -21.6975   -4.8692   14.7030 C   0  0  0  0  0  0  0  0  0  0  0  0
  -21.8041   -2.2766   14.8346 Cl  0  0  0  0  0  0  0  0  0  0  0  0
  -23.6784   -2.2348   12.4925 Cl  0  0  0  0  0  0  0  0  0  0  0  0
  -24.3699   -4.4187    7.2428 C   0  0  0  0  0  0  0  0  0  0  0  0
  -23.2247   -3.4808    7.0002 C   0  0  0  0  0  0  0  0  0  0  0  0
  -22.6866   -3.2973    5.6122 C   0  0  0  0  0  0  0  0  0  0  0  0
  -23.2936   -4.0517    4.4666 C   0  0  0  0  0  0  0  0  0  0  0  0
  -24.4389   -4.9897    4.7091 C   0  0  0  0  0  0  0  0  0  0  0  0
  -24.9770   -5.1732    6.0972 C   0  0  0  0  0  0  0  0  0  0  0  0
  -22.7555   -3.8682    3.0786 Cl  0  0  0  0  0  0  0  0  0  0  0  0
  -25.0459   -5.7441    3.5636 C   0  0  0  0  0  0  0  0  0  0  0  0
  -25.6530   -6.4985    2.4180 F   0  0  0  0  0  0  0  0  0  0  0  0
  -24.1511   -6.9113    3.8581 F   0  0  0  0  0  0  0  0  0  0  0  0
  -25.9408   -4.5768    3.2691 F   0  0  0  0  0  0  0  0  0  0  0  0
  5  6  2  0  0  0
  6  7  1  0  0  0
  7  8  2  0  0  0
  8  9  1  0  0  0
  9 10  2  0  0  0
  9 11  1  0  0  0
  8 12  1  0  0  0
  7  1  1  0  0  0
  1  2  1  0  0  0
  2  3  2  0  0  0
  2  4  1  0  0  0
  4 13  1  0  0  0
 13 14  2  0  0  0
 14 15  1  0  0  0
 15 16  2  0  0  0
 16 17  1  0  0  0
 17 18  2  0  0  0
 17 20  1  0  0  0
 20 21  1  0  0  0
 20 22  1  0  0  0
 20 23  1  0  0  0
 16 19  1  0  0  0
 10  5  1  0  0  0
 18 13  1  0  0  0
M  END
> <minimizedAffinity>
-8.83423

$$$$



 29 32  0  0  0  0  0  0  0  0999 V2000
  -22.9057   -5.2037   10.0376 C   0  0  0  0  0  0  0  0  0  0  0  0
  -22.5043   -4.5279    8.7600 C   0  0  0  0  0  0  0  0  0  0  0  0
  -21.2884   -3.6728    8.5592 C   0  0  0  0  0  0  0  0  0  0  0  0
  -21.2809   -3.2050    7.1340 N   0  0  0  0  0  0  0  0  0  0  0  0
  -22.4922   -3.7711    6.4541 C   0  0  0  0  0  0  0  0  0  0  0  0
  -23.2483   -4.5887    7.4590 C   0  0  0  0  0  0  0  0  0  0  0  0
  -24.5166   -5.2829    7.0595 C   0  0  0  0  0  0  0  0  0  0  0  0
  -25.0288   -5.1595    5.6550 C   0  0  0  0  0  0  0  0  0  0  0  0
  -24.2727   -4.3419    4.6501 C   0  0  0  0  0  0  0  0  0  0  0  0
  -23.0044   -3.6477    5.0496 C   0  0  0  0  0  0  0  0  0  0  0  0
  -26.2971   -5.8537    5.2555 Cl  0  0  0  0  0  0  0  0  0  0  0  0
  -23.5728   -1.8611   13.9596 C   0  0  0  0  0  0  0  0  0  0  0  0
  -22.7945   -2.9703   13.3162 C   0  0  0  0  0  0  0  0  0  0  0  0
  -21.5715   -3.5174   13.9906 C   0  0  0  0  0  0  0  0  0  0  0  0
  -20.7931   -4.6266   13.3473 C   0  0  0  0  0  0  0  0  0  0  0  0
  -21.2379   -5.1887   12.0297 C   0  0  0  0  0  0  0  0  0  0  0  0
  -22.4610   -4.6416   11.3552 C   0  0  0  0  0  0  0  0  0  0  0  0
  -23.2393   -3.5324   11.9986 C   0  0  0  0  0  0  0  0  0  0  0  0
  -20.4596   -6.2979   11.3863 F   0  0  0  0  0  0  0  0  0  0  0  0
  -23.7519   -6.4416    9.9976 C   0  0  0  0  0  0  0  0  0  0  0  0
  -23.7330   -7.4006   11.1508 C   0  0  0  0  0  0  0  0  0  0  0  0
  -24.6099   -7.1572   12.3432 O   0  0  0  0  0  0  0  0  0  0  0  0
  -22.8371   -8.6031   11.1116 N   0  0  0  0  0  0  0  0  0  0  0  0
  -22.8182   -9.5621   12.2649 C   0  0  0  0  0  0  0  0  0  0  0  0
  -21.5339   -9.8395   12.9886 C   0  0  0  0  0  0  0  0  0  0  0  0
  -21.5150  -10.7985   14.1419 C   0  0  0  0  0  0  0  0  0  0  0  0
  -22.7803  -11.4801   14.5714 C   0  0  0  0  0  0  0  0  0  0  0  0
  -24.0645  -11.2027   13.8476 C   0  0  0  0  0  0  0  0  0  0  0  0
  -24.0835  -10.2436   12.6943 C   0  0  0  0  0  0  0  0  0  0  0  0
 12 13  1  0  0  0
 13 14  2  0  0  0
 14 15  1  0  0  0
 15 16  2  0  0  0
 16 17  1  0  0  0
 17 18  2  0  0  0
 17  1  1  0  0  0
  1 20  1  0  0  0
 20 21  1  0  0  0
 21 22  2  0  0  0
 21 23  1  0  0  0
 23 24  1  0  0  0
 24 25  2  0  0  0
 25 26  1  0  0  0
 26 27  2  0  0  0
 27 28  1  0  0  0
 28 29  2  0  0  0
  1  2  1  0  0  0
  2  3  2  0  0  0
  3  4  1  0  0  0
  4  5  1  0  0  0
  5  6  2  0  0  0
  6  7  1  0  0  0
  7  8  2  0  0  0
  8  9  1  0  0  0
  9 10  2  0  0  0
  8 11  1  0  0  0
 16 19  1  0  0  0
 18 13  1  0  0  0
 29 24  1  0  0  0
  6  2  1  0  0  0
 10  5  1  0  0  0
M  END
> <minimizedAffinity>
-10.75284

$$$$



 35 38  0  0  0  0  0  0  0  0999 V2000
   -2.9618   23.5206   14.2519 C   0  0  0  0  0  0  0  0  0  0  0  0
   -2.1175   23.3554   15.4806 O   0  0  0  0  0  0  0  0  0  0  0  0
   -4.4578   23.5141   14.3635 N   0  0  0  0  0  0  0  0  0  0  0  0
   -5.3021   23.6794   13.1347 C   0  0  0  0  0  0  0  0  0  0  0  0
   -6.7980   23.6729   13.2463 C   0  0  0  0  0  0  0  0  0  0  0  0
   -7.4494   23.5013   14.5864 N   0  0  0  0  0  0  0  0  0  0  0  0
   -6.6050   23.3361   15.8151 C   0  0  0  0  0  0  0  0  0  0  0  0
   -5.1092   23.3425   15.7036 C   0  0  0  0  0  0  0  0  0  0  0  0
   -8.9453   23.4948   14.6979 C   0  0  0  0  0  0  0  0  0  0  0  0
   -9.6269   24.3848   15.6944 C   0  0  0  0  0  0  0  0  0  0  0  0
  -11.1227   24.3784   15.8060 C   0  0  0  0  0  0  0  0  0  0  0  0
  -11.9369   23.4819   14.9209 C   0  0  0  0  0  0  0  0  0  0  0  0
  -11.2553   22.5919   13.9242 C   0  0  0  0  0  0  0  0  0  0  0  0
   -9.7594   22.5984   13.8127 C   0  0  0  0  0  0  0  0  0  0  0  0
  -12.0695   21.6954   13.0391 C   0  0  0  0  0  0  0  0  0  0  0  0
  -12.8837   20.7990   12.1539 F   0  0  0  0  0  0  0  0  0  0  0  0
  -13.2124   22.6644   13.1090 F   0  0  0  0  0  0  0  0  0  0  0  0
  -10.9266   20.7265   12.9691 F   0  0  0  0  0  0  0  0  0  0  0  0
   -2.3104   23.6923   12.9117 C   0  0  0  0  0  0  0  0  0  0  0  0
   -1.2156   24.7021   12.7338 S   0  0  0  0  0  0  0  0  0  0  0  0
    0.1804   24.2483   12.4255 O   0  0  0  0  0  0  0  0  0  0  0  0
   -1.5169   26.1657   12.8643 C   0  0  0  0  0  0  0  0  0  0  0  0
   -3.3784   26.8542   10.2738 C   0  0  0  0  0  0  0  0  0  0  0  0
   -3.7958   26.9545   11.7110 C   0  0  0  0  0  0  0  0  0  0  0  0
   -2.9401   26.6380   12.9018 C   0  0  0  0  0  0  0  0  0  0  0  0
   -3.7576   26.8767   14.1365 N   0  0  0  0  0  0  0  0  0  0  0  0
   -5.1185   27.3408   13.7090 C   0  0  0  0  0  0  0  0  0  0  0  0
   -5.1420   27.3888   12.2100 O   0  0  0  0  0  0  0  0  0  0  0  0
   -6.2560   27.6946   14.6205 C   0  0  0  0  0  0  0  0  0  0  0  0
   -7.6651   27.3682   14.2230 C   0  0  0  0  0  0  0  0  0  0  0  0
   -8.8025   27.7221   15.1345 C   0  0  0  0  0  0  0  0  0  0  0  0
   -8.5310   28.4024   16.4435 C   0  0  0  0  0  0  0  0  0  0  0  0
   -7.1220   28.7288   16.8410 C   0  0  0  0  0  0  0  0  0  0  0  0
   -5.9845   28.3749   15.9295 C   0  0  0  0  0  0  0  0  0  0  0  0
   -9.6686   28.7562   17.3550 Cl  0  0  0  0  0  0  0  0  0  0  0  0
 23 24  1  0  0  0
 24 25  2  0  0  0
 25 26  1  0  0  0
 26 27  2  0  0  0
 27 28  1  0  0  0
 27 29  1  0  0  0
 29 30  2  0  0  0
 30 31  1  0  0  0
 31 32  2  0  0  0
 32 33  1  0  0  0
 33 34  2  0  0  0
 32 35  1  0  0  0
 25 22  1  0  0  0
 20 22  1  0  0  0
 20 21  2  0  0  0
 20 19  1  0  0  0
 19  1  1  0  0  0
  1  2  2  0  0  0
  1  3  1  0  0  0
  3  4  1  0  0  0
  4  5  1  0  0  0
  5  6  1  0  0  0
  6  7  1  0  0  0
  7  8  1  0  0  0
  6  9  1  0  0  0
  9 10  2  0  0  0
 10 11  1  0  0  0
 11 12  2  0  0  0
 12 13  1  0  0  0
 13 14  2  0  0  0
 13 15  1  0  0  0
 15 16  1  0  0  0
 15 17  1  0  0  0
 15 18  1  0  0  0
 28 24  1  0  0  0
 34 29  1  0  0  0
  8  3  1  0  0  0
 14  9  1  0  0  0
M  END
> <minimizedAffinity>
-9.94073

$$$$



 30 32  0  0  0  0  0  0  0  0999 V2000
   -4.1619   27.4735   13.6524 C   0  0  0  0  0  0  0  0  0  0  0  0
   -3.0950   26.5202   14.1028 C   0  0  0  0  0  0  0  0  0  0  0  0
   -3.3095   25.2739   14.9095 C   0  0  0  0  0  0  0  0  0  0  0  0
   -4.6286   24.7621   15.4074 O   0  0  0  0  0  0  0  0  0  0  0  0
   -1.9733   24.6292   15.1309 O   0  0  0  0  0  0  0  0  0  0  0  0
   -0.9329   25.4771   14.4610 C   0  0  0  0  0  0  0  0  0  0  0  0
   -1.6261   26.6458   13.8256 N   0  0  0  0  0  0  0  0  0  0  0  0
   -8.4653   26.7006   14.7171 C   0  0  0  0  0  0  0  0  0  0  0  0
   -7.7701   25.8223   13.7195 C   0  0  0  0  0  0  0  0  0  0  0  0
   -6.3356   26.0799   13.3646 C   0  0  0  0  0  0  0  0  0  0  0  0
   -5.5964   27.2158   14.0073 C   0  0  0  0  0  0  0  0  0  0  0  0
   -6.2915   28.0941   15.0049 C   0  0  0  0  0  0  0  0  0  0  0  0
   -7.7260   27.8365   15.3598 C   0  0  0  0  0  0  0  0  0  0  0  0
   -8.4212   28.7148   16.3575 I   0  0  0  0  0  0  0  0  0  0  0  0
   -8.5093   24.6863   13.0767 O   0  0  0  0  0  0  0  0  0  0  0  0
   -8.1341   23.2700   13.3979 C   0  0  0  0  0  0  0  0  0  0  0  0
   -9.8997   26.4429   15.0720 O   0  0  0  0  0  0  0  0  0  0  0  0
  -11.7246   24.6669   15.5874 C   0  0  0  0  0  0  0  0  0  0  0  0
  -10.2994   25.1272   15.6712 C   0  0  0  0  0  0  0  0  0  0  0  0
   -9.2739   24.2717   16.3543 O   0  0  0  0  0  0  0  0  0  0  0  0
    0.5418   25.2043   14.4317 C   0  0  0  0  0  0  0  0  0  0  0  0
    1.0959   24.0005   15.1343 C   0  0  0  0  0  0  0  0  0  0  0  0
    2.5705   23.7276   15.1050 C   0  0  0  0  0  0  0  0  0  0  0  0
    3.4911   24.6586   14.3730 C   0  0  0  0  0  0  0  0  0  0  0  0
    2.9370   25.8624   13.6703 C   0  0  0  0  0  0  0  0  0  0  0  0
    1.4623   26.1353   13.6997 C   0  0  0  0  0  0  0  0  0  0  0  0
    0.9082   27.3391   12.9970 Cl  0  0  0  0  0  0  0  0  0  0  0  0
    3.1247   22.5238   15.8076 N   0  0  0  0  0  0  0  0  0  0  0  0
    2.7145   21.1476   15.3743 O   0  0  0  0  0  0  0  0  0  0  0  0
    4.0890   22.6962   16.9436 O   0  0  0  0  0  0  0  0  0  0  0  0
 18 19  1  0  0  0
 19 20  2  0  0  0
 19 17  1  0  0  0
 17  8  1  0  0  0
  8  9  2  0  0  0
  9 10  1  0  0  0
 10 11  2  0  0  0
 11 12  1  0  0  0
 12 13  2  0  0  0
 13 14  1  0  0  0
 11  1  1  0  0  0
  1  2  2  0  0  0
  2  3  1  0  0  0
  3  4  2  0  0  0
  3  5  1  0  0  0
  5  6  1  0  0  0
  6  7  2  0  0  0
  6 21  1  0  0  0
 21 22  2  0  0  0
 22 23  1  0  0  0
 23 24  2  0  0  0
 24 25  1  0  0  0
 25 26  2  0  0  0
 26 27  1  0  0  0
 23 28  1  0  0  0
 28 29  2  0  0  0
 28 30  1  0  0  0
  9 15  1  0  0  0
 15 16  1  0  0  0
 13  8  1  0  0  0
  7  2  1  0  0  0
 26 21  1  0  0  0
M  CHG 1  28   1
M  CHG 1  30  -1
M  END
> <minimizedAffinity>
-8.41154

$$$$



 37 40  0  0  0  0  0  0  0  0999 V2000
   -3.0232   27.1339    9.1747 C   0  0  0  0  0  0  0  0  0  0  0  0
   -3.3810   26.5384   10.5043 C   0  0  0  0  0  0  0  0  0  0  0  0
   -4.8211   26.3451   10.8764 N   0  0  0  0  0  0  0  0  0  0  0  0
   -5.1788   25.7496   12.2059 C   0  0  0  0  0  0  0  0  0  0  0  0
   -4.0963   25.3475   13.1632 C   0  0  0  0  0  0  0  0  0  0  0  0
   -2.6561   25.5408   12.7910 C   0  0  0  0  0  0  0  0  0  0  0  0
   -2.2985   26.1363   11.4616 C   0  0  0  0  0  0  0  0  0  0  0  0
   -4.4540   24.7520   14.4927 C   0  0  0  0  0  0  0  0  0  0  0  0
   -3.3715   24.3499   15.4500 O   0  0  0  0  0  0  0  0  0  0  0  0
   -5.8942   24.5587   14.8648 C   0  0  0  0  0  0  0  0  0  0  0  0
   -6.9767   24.9608   13.9074 C   0  0  0  0  0  0  0  0  0  0  0  0
   -6.6190   25.5563   12.5780 C   0  0  0  0  0  0  0  0  0  0  0  0
   -1.5736   25.1387   13.7484 C   0  0  0  0  0  0  0  0  0  0  0  0
   -1.0029   23.7525   13.6959 C   0  0  0  0  0  0  0  0  0  0  0  0
    0.0796   23.3503   14.6532 C   0  0  0  0  0  0  0  0  0  0  0  0
    0.5914   24.3345   15.6630 C   0  0  0  0  0  0  0  0  0  0  0  0
    0.0207   25.7206   15.7155 C   0  0  0  0  0  0  0  0  0  0  0  0
   -1.0618   26.1227   14.7581 C   0  0  0  0  0  0  0  0  0  0  0  0
   -1.3599   27.0523   14.8831 Br  0  0  0  0  0  0  0  0  0  0  0  0
    1.6739   23.9324   16.6204 O   0  0  0  0  0  0  0  0  0  0  0  0
    3.0906   23.8115   16.1428 C   0  0  0  0  0  0  0  0  0  0  0  0
    0.6503   21.9642   14.6008 O   0  0  0  0  0  0  0  0  0  0  0  0
    0.4076   21.0099   15.7323 C   0  0  0  0  0  0  0  0  0  0  0  0
   -8.4169   24.7675   14.2796 C   0  0  0  0  0  0  0  0  0  0  0  0
   -9.2611   25.9506   14.6501 C   0  0  0  0  0  0  0  0  0  0  0  0
  -10.7014   25.7573   15.0223 C   0  0  0  0  0  0  0  0  0  0  0  0
  -11.2973   24.3807   15.0239 C   0  0  0  0  0  0  0  0  0  0  0  0
  -10.4529   23.1975   14.6534 C   0  0  0  0  0  0  0  0  0  0  0  0
   -9.0128   23.3909   14.2813 C   0  0  0  0  0  0  0  0  0  0  0  0
  -11.0488   21.8210   14.6550 O   0  0  0  0  0  0  0  0  0  0  0  0
  -11.4108   21.1588   13.3587 C   0  0  0  0  0  0  0  0  0  0  0  0
  -12.7374   24.1873   15.3961 O   0  0  0  0  0  0  0  0  0  0  0  0
  -13.7708   24.0039   14.3245 C   0  0  0  0  0  0  0  0  0  0  0  0
   -0.8582   26.3296   11.0894 C   0  0  0  0  0  0  0  0  0  0  0  0
   -0.3222   27.1473   11.2016 O   0  0  0  0  0  0  0  0  0  0  0  0
   -0.0843   25.2011   10.4752 O   0  0  0  0  0  0  0  0  0  0  0  0
    0.4886   25.3475    9.0967 C   0  0  0  0  0  0  0  0  0  0  0  0
  1  2  1  0  0  0
  2  3  2  0  0  0
  3  4  1  0  0  0
  4  5  2  0  0  0
  5  6  1  0  0  0
  6  7  1  0  0  0
  7 34  1  0  0  0
 34 35  2  0  0  0
 34 36  1  0  0  0
 36 37  1  0  0  0
  6 13  1  0  0  0
 13 14  2  0  0  0
 14 15  1  0  0  0
 15 16  2  0  0  0
 16 17  1  0  0  0
 17 18  2  0  0  0
 18 19  1  0  0  0
 16 20  1  0  0  0
 20 21  1  0  0  0
 15 22  1  0  0  0
 22 23  1  0  0  0
  5  8  1  0  0  0
  8  9  2  0  0  0
  8 10  1  0  0  0
 10 11  1  0  0  0
 11 12  1  0  0  0
 11 24  1  0  0  0
 24 25  2  0  0  0
 25 26  1  0  0  0
 26 27  2  0  0  0
 27 28  1  0  0  0
 28 29  2  0  0  0
 28 30  1  0  0  0
 30 31  1  0  0  0
 27 32  1  0  0  0
 32 33  1  0  0  0
  7  2  1  0  0  0
 12  4  1  0  0  0
 18 13  1  0  0  0
 29 24  1  0  0  0
M  END
> <minimizedAffinity>
-6.19035

$$$$



 29 31  0  0  0  0  0  0  0  0999 V2000
   -6.4254   26.7211   13.8131 C   0  0  0  0  0  0  0  0  0  0  0  0
   -5.3825   27.2647   12.8822 C   0  0  0  0  0  0  0  0  0  0  0  0
   -4.2617   26.3840   12.4150 C   0  0  0  0  0  0  0  0  0  0  0  0
   -4.1838   24.9597   12.8789 C   0  0  0  0  0  0  0  0  0  0  0  0
   -5.2267   24.4161   13.8098 C   0  0  0  0  0  0  0  0  0  0  0  0
   -6.3475   25.2967   14.2770 C   0  0  0  0  0  0  0  0  0  0  0  0
   -5.1488   22.9917   14.2737 I   0  0  0  0  0  0  0  0  0  0  0  0
   -3.2187   26.9277   11.4840 C   0  0  0  0  0  0  0  0  0  0  0  0
   -1.7648   26.6886   11.7648 C   0  0  0  0  0  0  0  0  0  0  0  0
   -0.6150   27.1677   10.9290 C   0  0  0  0  0  0  0  0  0  0  0  0
   -0.7173   27.9699    9.6657 O   0  0  0  0  0  0  0  0  0  0  0  0
    0.6551   26.7036   11.5783 O   0  0  0  0  0  0  0  0  0  0  0  0
    0.2903   25.9378   12.8154 C   0  0  0  0  0  0  0  0  0  0  0  0
   -1.2053   25.9286   12.9307 N   0  0  0  0  0  0  0  0  0  0  0  0
    1.2521   25.2942   13.7697 C   0  0  0  0  0  0  0  0  0  0  0  0
    2.5521   24.6410   13.4048 C   0  0  0  0  0  0  0  0  0  0  0  0
    3.1863   24.1339   14.6660 C   0  0  0  0  0  0  0  0  0  0  0  0
    2.2781   24.4738   15.8105 C   0  0  0  0  0  0  0  0  0  0  0  0
    1.0827   25.1909   15.2566 S   0  0  0  0  0  0  0  0  0  0  0  0
   -7.5462   27.6017   14.2802 O   0  0  0  0  0  0  0  0  0  0  0  0
   -8.7628   28.5641   16.3644 C   0  0  0  0  0  0  0  0  0  0  0  0
   -7.4919   28.2253   15.6433 C   0  0  0  0  0  0  0  0  0  0  0  0
   -7.3905   24.7530   15.2080 O   0  0  0  0  0  0  0  0  0  0  0  0
   -8.7380   24.3615   14.6782 C   0  0  0  0  0  0  0  0  0  0  0  0
   -9.1581   22.9215   14.6873 C   0  0  0  0  0  0  0  0  0  0  0  0
   -8.8763   22.0656   15.8865 O   0  0  0  0  0  0  0  0  0  0  0  0
   -9.8599   22.3374   13.4972 O   0  0  0  0  0  0  0  0  0  0  0  0
  -10.9989   21.3813   13.6929 C   0  0  0  0  0  0  0  0  0  0  0  0
  -12.3466   21.6911   13.1116 C   0  0  0  0  0  0  0  0  0  0  0  0
 21 22  1  0  0  0
 22 20  1  0  0  0
 20  1  1  0  0  0
  1  2  2  0  0  0
  2  3  1  0  0  0
  3  4  2  0  0  0
  4  5  1  0  0  0
  5  6  2  0  0  0
  6 23  1  0  0  0
 23 24  1  0  0  0
 24 25  1  0  0  0
 25 26  2  0  0  0
 25 27  1  0  0  0
 27 28  1  0  0  0
 28 29  1  0  0  0
  5  7  1  0  0  0
  3  8  1  0  0  0
  8  9  2  0  0  0
  9 10  1  0  0  0
 10 11  2  0  0  0
 10 12  1  0  0  0
 12 13  1  0  0  0
 13 14  2  0  0  0
 13 15  1  0  0  0
 15 16  2  0  0  0
 16 17  1  0  0  0
 17 18  2  0  0  0
 18 19  1  0  0  0
  6  1  1  0  0  0
 14  9  1  0  0  0
 19 15  1  0  0  0
M  END
> <minimizedAffinity>
-7.76647

$$$$



 31 34  0  0  0  0  0  0  0  0999 V2000
   -0.9087   26.0167   12.6618 C   0  0  0  0  0  0  0  0  0  0  0  0
    0.2390   25.6098   13.5376 C   0  0  0  0  0  0  0  0  0  0  0  0
    0.1306   25.7462   15.0275 C   0  0  0  0  0  0  0  0  0  0  0  0
   -1.1256   26.2894   15.6415 N   0  0  0  0  0  0  0  0  0  0  0  0
   -2.2733   26.6963   14.7656 C   0  0  0  0  0  0  0  0  0  0  0  0
   -2.1649   26.5600   13.2757 C   0  0  0  0  0  0  0  0  0  0  0  0
   -3.3126   26.9669   12.3998 C   0  0  0  0  0  0  0  0  0  0  0  0
   -3.2041   26.8306   10.9100 O   0  0  0  0  0  0  0  0  0  0  0  0
   -4.5687   27.5101   13.0138 C   0  0  0  0  0  0  0  0  0  0  0  0
   -4.6771   27.6464   14.5037 C   0  0  0  0  0  0  0  0  0  0  0  0
   -3.5295   27.2395   15.3795 C   0  0  0  0  0  0  0  0  0  0  0  0
    1.2783   25.3392   15.9034 C   0  0  0  0  0  0  0  0  0  0  0  0
    2.5345   24.7960   15.2894 C   0  0  0  0  0  0  0  0  0  0  0  0
    2.6429   24.6597   13.7996 C   0  0  0  0  0  0  0  0  0  0  0  0
    1.4952   25.0666   12.9237 C   0  0  0  0  0  0  0  0  0  0  0  0
    1.7296   24.9258   12.1749 O   0  0  0  0  0  0  0  0  0  0  0  0
   -1.1350   24.5758   10.5118 C   0  0  0  0  0  0  0  0  0  0  0  0
   -0.8002   25.8804   11.1719 C   0  0  0  0  0  0  0  0  0  0  0  0
   -0.3570   27.0489   10.3422 C   0  0  0  0  0  0  0  0  0  0  0  0
   -0.2485   26.9126    8.8523 C   0  0  0  0  0  0  0  0  0  0  0  0
   -0.5833   25.6078    8.1922 C   0  0  0  0  0  0  0  0  0  0  0  0
   -1.0265   24.4395    9.0219 C   0  0  0  0  0  0  0  0  0  0  0  0
   -1.3613   23.1348    8.3618 I   0  0  0  0  0  0  0  0  0  0  0  0
    0.1947   28.0809    8.0226 Br  0  0  0  0  0  0  0  0  0  0  0  0
   -1.5782   23.4074   11.3415 O   0  0  0  0  0  0  0  0  0  0  0  0
   -2.9411   23.4064   11.9679 C   0  0  0  0  0  0  0  0  0  0  0  0
   -3.1015   23.0421   13.4141 C   0  0  0  0  0  0  0  0  0  0  0  0
   -1.9257   23.1203   14.3422 O   0  0  0  0  0  0  0  0  0  0  0  0
   -4.4379   22.5995   13.9323 O   0  0  0  0  0  0  0  0  0  0  0  0
   -6.6227   23.7448   13.1172 C   0  0  0  0  0  0  0  0  0  0  0  0
   -5.5327   23.6040   14.1380 C   0  0  0  0  0  0  0  0  0  0  0  0
 30 31  1  0  0  0
 31 29  1  0  0  0
 29 27  1  0  0  0
 27 28  2  0  0  0
 27 26  1  0  0  0
 26 25  1  0  0  0
 25 17  1  0  0  0
 17 18  2  0  0  0
 18 19  1  0  0  0
 19 20  2  0  0  0
 20 21  1  0  0  0
 21 22  2  0  0  0
 22 23  1  0  0  0
 20 24  1  0  0  0
  1 18  1  0  0  0
  1  2  1  0  0  0
  2  3  1  0  0  0
  3  4  2  0  0  0
  4  5  1  0  0  0
  5  6  2  0  0  0
  6  7  1  0  0  0
  7  8  2  0  0  0
  7  9  1  0  0  0
  9 10  1  0  0  0
 10 11  1  0  0  0
  3 12  1  0  0  0
 12 13  1  0  0  0
 13 14  1  0  0  0
 14 15  1  0  0  0
 15 16  2  0  0  0
 22 17  1  0  0  0
  6  1  1  0  0  0
 15  2  1  0  0  0
 11  5  1  0  0  0
M  END
> <minimizedAffinity>
-6.10631

$$$$



 40 45  0  0  0  0  0  0  0  0999 V2000
   -4.6124   29.8634   13.3361 C   0  0  0  0  0  0  0  0  0  0  0  0
   -5.0333   28.5284   13.8751 N   0  0  0  0  0  0  0  0  0  0  0  0
   -6.0652   28.2923   14.9379 C   0  0  0  0  0  0  0  0  0  0  0  0
   -6.9259   29.2331   15.7278 C   0  0  0  0  0  0  0  0  0  0  0  0
   -7.8875   28.6947   16.7454 C   0  0  0  0  0  0  0  0  0  0  0  0
   -7.9883   27.2155   16.9731 C   0  0  0  0  0  0  0  0  0  0  0  0
   -7.1275   26.2747   16.1832 C   0  0  0  0  0  0  0  0  0  0  0  0
   -6.1659   26.8131   15.1657 C   0  0  0  0  0  0  0  0  0  0  0  0
   -5.1964   26.1351   14.2436 C   0  0  0  0  0  0  0  0  0  0  0  0
   -4.4964   27.1952   13.4459 C   0  0  0  0  0  0  0  0  0  0  0  0
   -3.4605   26.8095   12.4319 C   0  0  0  0  0  0  0  0  0  0  0  0
   -2.7605   27.8696   11.6343 O   0  0  0  0  0  0  0  0  0  0  0  0
   -3.1246   25.3637   12.2155 N   0  0  0  0  0  0  0  0  0  0  0  0
   -3.8246   24.3036   13.0131 N   0  0  0  0  0  0  0  0  0  0  0  0
   -4.8605   24.6893   14.0271 C   0  0  0  0  0  0  0  0  0  0  0  0
   -5.5605   23.6291   14.8248 C   0  0  0  0  0  0  0  0  0  0  0  0
   -4.7622   22.5885   15.5525 O   0  0  0  0  0  0  0  0  0  0  0  0
   -7.0588   23.6097   14.8945 N   0  0  0  0  0  0  0  0  0  0  0  0
   -7.7587   22.5495   15.6921 C   0  0  0  0  0  0  0  0  0  0  0  0
   -9.2569   22.5301   15.7620 C   0  0  0  0  0  0  0  0  0  0  0  0
  -10.0552   23.5708   15.0342 N   0  0  0  0  0  0  0  0  0  0  0  0
   -9.3553   24.6308   14.2366 C   0  0  0  0  0  0  0  0  0  0  0  0
   -7.8570   24.6503   14.1668 C   0  0  0  0  0  0  0  0  0  0  0  0
  -11.5534   23.5513   15.1040 C   0  0  0  0  0  0  0  0  0  0  0  0
  -12.3016   24.7869   15.5085 C   0  0  0  0  0  0  0  0  0  0  0  0
  -13.7998   24.7675   15.5784 C   0  0  0  0  0  0  0  0  0  0  0  0
  -14.5500   23.5124   15.2436 C   0  0  0  0  0  0  0  0  0  0  0  0
  -13.8020   22.2768   14.8391 C   0  0  0  0  0  0  0  0  0  0  0  0
  -12.3036   22.2962   14.7692 C   0  0  0  0  0  0  0  0  0  0  0  0
  -11.5555   21.0607   14.3647 O   0  0  0  0  0  0  0  0  0  0  0  0
  -10.8877   20.9938   13.0232 C   0  0  0  0  0  0  0  0  0  0  0  0
   -2.0888   24.9780   11.2015 C   0  0  0  0  0  0  0  0  0  0  0  0
   -0.7069   25.5555   11.2840 C   0  0  0  0  0  0  0  0  0  0  0  0
    0.3290   25.1698   10.2700 C   0  0  0  0  0  0  0  0  0  0  0  0
   -0.0171   24.2067    9.1735 C   0  0  0  0  0  0  0  0  0  0  0  0
   -1.3989   23.6291    9.0909 C   0  0  0  0  0  0  0  0  0  0  0  0
   -2.4348   24.0148   10.1050 C   0  0  0  0  0  0  0  0  0  0  0  0
   -1.7450   22.6659    7.9943 Cl  0  0  0  0  0  0  0  0  0  0  0  0
    1.0188   23.8210    8.1594 O   0  0  0  0  0  0  0  0  0  0  0  0
    2.2102   24.7033    7.9315 C   0  0  0  0  0  0  0  0  0  0  0  0
  1  2  1  0  0  0
  2  3  1  0  0  0
  3  4  2  0  0  0
  4  5  1  0  0  0
  5  6  2  0  0  0
  6  7  1  0  0  0
  7  8  2  0  0  0
  8  9  1  0  0  0
  9 10  2  0  0  0
 10 11  1  0  0  0
 11 12  2  0  0  0
 11 13  1  0  0  0
 13 14  1  0  0  0
 14 15  2  0  0  0
 15 16  1  0  0  0
 16 17  2  0  0  0
 16 18  1  0  0  0
 18 19  1  0  0  0
 19 20  1  0  0  0
 20 21  1  0  0  0
 21 22  1  0  0  0
 22 23  1  0  0  0
 21 24  1  0  0  0
 24 25  2  0  0  0
 25 26  1  0  0  0
 26 27  2  0  0  0
 27 28  1  0  0  0
 28 29  2  0  0  0
 29 30  1  0  0  0
 30 31  1  0  0  0
 13 32  1  0  0  0
 32 33  2  0  0  0
 33 34  1  0  0  0
 34 35  2  0  0  0
 35 36  1  0  0  0
 36 37  2  0  0  0
 36 38  1  0  0  0
 35 39  1  0  0  0
 39 40  1  0  0  0
 10  2  1  0  0  0
  8  3  1  0  0  0
 15  9  1  0  0  0
 23 18  1  0  0  0
 29 24  1  0  0  0
 37 32  1  0  0  0
M  END
> <minimizedAffinity>
-3.12869

$$$$



 37 40  0  0  0  0  0  0  0  0999 V2000
   -4.3005   24.9004   13.5135 C   0  0  0  0  0  0  0  0  0  0  0  0
   -3.6899   26.2686   13.5853 C   0  0  0  0  0  0  0  0  0  0  0  0
   -4.4729   27.4100   14.1634 C   0  0  0  0  0  0  0  0  0  0  0  0
   -5.8665   27.1832   14.6697 C   0  0  0  0  0  0  0  0  0  0  0  0
   -6.4771   25.8150   14.5979 C   0  0  0  0  0  0  0  0  0  0  0  0
   -5.6941   24.6736   14.0198 C   0  0  0  0  0  0  0  0  0  0  0  0
   -6.3047   23.3054   13.9480 O   0  0  0  0  0  0  0  0  0  0  0  0
   -7.8707   25.5881   15.1042 C   0  0  0  0  0  0  0  0  0  0  0  0
   -8.6538   26.7294   15.6823 C   0  0  0  0  0  0  0  0  0  0  0  0
   -8.0431   28.0977   15.7541 C   0  0  0  0  0  0  0  0  0  0  0  0
   -6.6495   28.3245   15.2478 N   0  0  0  0  0  0  0  0  0  0  0  0
   -8.8261   29.2390   16.3322 C   0  0  0  0  0  0  0  0  0  0  0  0
   -8.4813   24.2199   15.0324 C   0  0  0  0  0  0  0  0  0  0  0  0
   -9.3054   23.6804   13.9011 C   0  0  0  0  0  0  0  0  0  0  0  0
   -9.7084   22.2780   14.2488 C   0  0  0  0  0  0  0  0  0  0  0  0
   -9.1334   21.9508   15.5951 S   0  0  0  0  0  0  0  0  0  0  0  0
   -8.3750   23.1510   16.0793 C   0  0  0  0  0  0  0  0  0  0  0  0
   -7.7622   23.0967   17.2810 C   0  0  0  0  0  0  0  0  0  0  0  0
  -10.5404   21.3635   13.3995 C   0  0  0  0  0  0  0  0  0  0  0  0
   -2.2962   26.4955   13.0790 C   0  0  0  0  0  0  0  0  0  0  0  0
   -1.1221   26.2535   13.9805 C   0  0  0  0  0  0  0  0  0  0  0  0
    0.2716   26.4804   13.4742 C   0  0  0  0  0  0  0  0  0  0  0  0
    0.4910   26.9493   12.0663 C   0  0  0  0  0  0  0  0  0  0  0  0
   -0.6832   27.1912   11.1648 C   0  0  0  0  0  0  0  0  0  0  0  0
   -2.0768   26.9644   11.6711 C   0  0  0  0  0  0  0  0  0  0  0  0
   -3.2510   27.2063   10.7696 O   0  0  0  0  0  0  0  0  0  0  0  0
   -3.1111   27.0157    9.2884 C   0  0  0  0  0  0  0  0  0  0  0  0
   -3.5174   23.7591   12.9354 C   0  0  0  0  0  0  0  0  0  0  0  0
   -3.2213   23.0825   13.2354 O   0  0  0  0  0  0  0  0  0  0  0  0
   -3.1419   23.7666   11.4832 O   0  0  0  0  0  0  0  0  0  0  0  0
   -1.2994   23.7168    9.6521 C   0  0  0  0  0  0  0  0  0  0  0  0
   -1.7244   23.4963   11.0737 C   0  0  0  0  0  0  0  0  0  0  0  0
  -10.0473   26.5026   16.1886 C   0  0  0  0  0  0  0  0  0  0  0  0
  -10.5242   26.7996   17.4162 O   0  0  0  0  0  0  0  0  0  0  0  0
  -11.0791   25.8833   15.2931 O   0  0  0  0  0  0  0  0  0  0  0  0
  -12.0687   24.9051   15.8535 C   0  0  0  0  0  0  0  0  0  0  0  0
  -13.0291   24.2031   14.9398 C   0  0  0  0  0  0  0  0  0  0  0  0
 31 32  1  0  0  0
 32 30  1  0  0  0
 30 28  1  0  0  0
 28 29  2  0  0  0
  1 28  1  0  0  0
  1  2  1  0  0  0
  2  3  1  0  0  0
  3  4  2  0  0  0
  4  5  1  0  0  0
  5  6  1  0  0  0
  6  7  2  0  0  0
  5  8  1  0  0  0
  8  9  1  0  0  0
  9 10  1  0  0  0
 10 11  2  0  0  0
 10 12  1  0  0  0
  9 33  1  0  0  0
 33 34  2  0  0  0
 33 35  1  0  0  0
 35 36  1  0  0  0
 36 37  1  0  0  0
  8 13  1  0  0  0
 13 14  1  0  0  0
 14 15  2  0  0  0
 15 16  1  0  0  0
 16 17  1  0  0  0
 17 18  1  0  0  0
 15 19  1  0  0  0
  2 20  1  0  0  0
 20 21  2  0  0  0
 21 22  1  0  0  0
 22 23  2  0  0  0
 23 24  1  0  0  0
 24 25  2  0  0  0
 25 26  1  0  0  0
 26 27  1  0  0  0
  6  1  1  0  0  0
 11  4  1  0  0  0
 17 13  2  0  0  0
 25 20  1  0  0  0
M  END
> <minimizedAffinity>
-5.76153

$$$$



 37 40  0  0  0  0  0  0  0  0999 V2000
   -4.3005   24.9004   13.5135 C   0  0  0  0  0  0  0  0  0  0  0  0
   -3.6899   26.2686   13.5853 C   0  0  0  0  0  0  0  0  0  0  0  0
   -4.4729   27.4100   14.1634 C   0  0  0  0  0  0  0  0  0  0  0  0
   -5.8665   27.1832   14.6697 C   0  0  0  0  0  0  0  0  0  0  0  0
   -6.4771   25.8150   14.5979 C   0  0  0  0  0  0  0  0  0  0  0  0
   -5.6941   24.6736   14.0198 C   0  0  0  0  0  0  0  0  0  0  0  0
   -6.3047   23.3054   13.9480 O   0  0  0  0  0  0  0  0  0  0  0  0
   -7.8707   25.5881   15.1042 C   0  0  0  0  0  0  0  0  0  0  0  0
   -8.6538   26.7294   15.6823 C   0  0  0  0  0  0  0  0  0  0  0  0
   -8.0431   28.0977   15.7541 C   0  0  0  0  0  0  0  0  0  0  0  0
   -6.6495   28.3245   15.2478 N   0  0  0  0  0  0  0  0  0  0  0  0
   -8.8261   29.2390   16.3322 C   0  0  0  0  0  0  0  0  0  0  0  0
   -8.4813   24.2199   15.0324 C   0  0  0  0  0  0  0  0  0  0  0  0
   -9.3054   23.6804   13.9011 C   0  0  0  0  0  0  0  0  0  0  0  0
   -9.7084   22.2780   14.2488 C   0  0  0  0  0  0  0  0  0  0  0  0
   -9.1334   21.9508   15.5951 S   0  0  0  0  0  0  0  0  0  0  0  0
   -8.3750   23.1510   16.0793 C   0  0  0  0  0  0  0  0  0  0  0  0
   -7.7622   23.0967   17.2810 C   0  0  0  0  0  0  0  0  0  0  0  0
  -10.5404   21.3635   13.3995 C   0  0  0  0  0  0  0  0  0  0  0  0
   -2.2962   26.4955   13.0790 C   0  0  0  0  0  0  0  0  0  0  0  0
   -1.1221   26.2535   13.9805 C   0  0  0  0  0  0  0  0  0  0  0  0
    0.2716   26.4804   13.4742 C   0  0  0  0  0  0  0  0  0  0  0  0
    0.4910   26.9493   12.0663 C   0  0  0  0  0  0  0  0  0  0  0  0
   -0.6832   27.1912   11.1648 C   0  0  0  0  0  0  0  0  0  0  0  0
   -2.0768   26.9644   11.6711 C   0  0  0  0  0  0  0  0  0  0  0  0
   -3.2510   27.2063   10.7696 O   0  0  0  0  0  0  0  0  0  0  0  0
   -3.1111   27.0157    9.2884 C   0  0  0  0  0  0  0  0  0  0  0  0
   -3.5174   23.7591   12.9354 C   0  0  0  0  0  0  0  0  0  0  0  0
   -3.2213   23.0825   13.2354 O   0  0  0  0  0  0  0  0  0  0  0  0
   -3.1419   23.7666   11.4832 O   0  0  0  0  0  0  0  0  0  0  0  0
   -1.2994   23.7168    9.6521 C   0  0  0  0  0  0  0  0  0  0  0  0
   -1.7244   23.4963   11.0737 C   0  0  0  0  0  0  0  0  0  0  0  0
  -10.0473   26.5026   16.1886 C   0  0  0  0  0  0  0  0  0  0  0  0
  -10.5242   26.7996   17.4162 O   0  0  0  0  0  0  0  0  0  0  0  0
  -11.0791   25.8833   15.2931 O   0  0  0  0  0  0  0  0  0  0  0  0
  -12.0687   24.9051   15.8535 C   0  0  0  0  0  0  0  0  0  0  0  0
  -13.0291   24.2031   14.9398 C   0  0  0  0  0  0  0  0  0  0  0  0
 31 32  1  0  0  0
 32 30  1  0  0  0
 30 28  1  0  0  0
 28 29  2  0  0  0
  1 28  1  0  0  0
  1  2  1  0  0  0
  2  3  1  0  0  0
  3  4  1  0  0  0
  4  5  2  0  0  0
  5  6  1  0  0  0
  6  7  2  0  0  0
  5  8  1  0  0  0
  8  9  1  0  0  0
  9 10  1  0  0  0
 10 11  2  0  0  0
 10 12  1  0  0  0
  9 33  1  0  0  0
 33 34  2  0  0  0
 33 35  1  0  0  0
 35 36  1  0  0  0
 36 37  1  0  0  0
  8 13  1  0  0  0
 13 14  1  0  0  0
 14 15  2  0  0  0
 15 16  1  0  0  0
 16 17  1  0  0  0
 17 18  1  0  0  0
 15 19  1  0  0  0
  2 20  1  0  0  0
 20 21  2  0  0  0
 21 22  1  0  0  0
 22 23  2  0  0  0
 23 24  1  0  0  0
 24 25  2  0  0  0
 25 26  1  0  0  0
 26 27  1  0  0  0
  6  1  1  0  0  0
 11  4  1  0  0  0
 17 13  2  0  0  0
 25 20  1  0  0  0
M  END
> <minimizedAffinity>
-5.76153

$$$$



 36 40  0  0  0  0  0  0  0  0999 V2000
   -9.4611   23.7721   15.0350 N   0  0  0  0  0  0  0  0  0  0  0  0
   -8.6740   23.0080   14.0120 C   0  0  0  0  0  0  0  0  0  0  0  0
   -9.2013   21.7102   13.4759 O   0  0  0  0  0  0  0  0  0  0  0  0
   -5.6076   29.7100   18.4282 C   0  0  0  0  0  0  0  0  0  0  0  0
   -6.6365   28.9506   17.6443 C   0  0  0  0  0  0  0  0  0  0  0  0
   -7.7809   29.6797   17.0050 C   0  0  0  0  0  0  0  0  0  0  0  0
   -8.8099   28.9203   16.2211 C   0  0  0  0  0  0  0  0  0  0  0  0
   -8.6944   27.4317   16.0764 C   0  0  0  0  0  0  0  0  0  0  0  0
   -7.5500   26.7026   16.7157 C   0  0  0  0  0  0  0  0  0  0  0  0
   -6.5210   27.4621   17.4997 C   0  0  0  0  0  0  0  0  0  0  0  0
   -7.6978   25.2429   16.4034 S   0  0  0  0  0  0  0  0  0  0  0  0
   -8.9337   25.0700   15.5711 C   0  0  0  0  0  0  0  0  0  0  0  0
   -9.5496   26.4226   15.3690 N   0  0  0  0  0  0  0  0  0  0  0  0
   -7.3595   23.5418   13.5251 C   0  0  0  0  0  0  0  0  0  0  0  0
   -6.0772   22.9279   14.0035 C   0  0  0  0  0  0  0  0  0  0  0  0
   -4.7626   23.4618   13.5165 C   0  0  0  0  0  0  0  0  0  0  0  0
   -4.7304   24.6095   12.5513 C   0  0  0  0  0  0  0  0  0  0  0  0
   -6.0127   25.2234   12.0729 C   0  0  0  0  0  0  0  0  0  0  0  0
   -7.3272   24.6896   12.5598 C   0  0  0  0  0  0  0  0  0  0  0  0
   -3.4159   25.1433   12.0644 S   0  0  0  0  0  0  0  0  0  0  0  0
   -3.9761   26.5347   12.0776 O   0  0  0  0  0  0  0  0  0  0  0  0
   -2.8558   23.7519   12.0511 O   0  0  0  0  0  0  0  0  0  0  0  0
   -2.1014   25.6771   11.5774 N   0  0  0  0  0  0  0  0  0  0  0  0
   -1.6754   25.4414   10.1587 C   0  0  0  0  0  0  0  0  0  0  0  0
   -1.2129   26.4467   12.5093 C   0  0  0  0  0  0  0  0  0  0  0  0
   -0.2481   25.7189   13.3978 C   0  0  0  0  0  0  0  0  0  0  0  0
    1.0516   25.1036   12.9710 C   0  0  0  0  0  0  0  0  0  0  0  0
    1.6893   24.4830   14.1786 C   0  0  0  0  0  0  0  0  0  0  0  0
    0.7836   24.7147   15.3517 C   0  0  0  0  0  0  0  0  0  0  0  0
   -0.4138   25.4786   14.8691 O   0  0  0  0  0  0  0  0  0  0  0  0
  -10.7757   23.2383   15.5220 C   0  0  0  0  0  0  0  0  0  0  0  0
  -12.0221   23.4687   14.7199 C   0  0  0  0  0  0  0  0  0  0  0  0
  -13.2474   24.1985   15.1847 C   0  0  0  0  0  0  0  0  0  0  0  0
  -14.2447   24.1906   14.0643 C   0  0  0  0  0  0  0  0  0  0  0  0
  -13.6357   23.4558   12.9070 C   0  0  0  0  0  0  0  0  0  0  0  0
  -12.2621   23.0097   13.3122 O   0  0  0  0  0  0  0  0  0  0  0  0
  4  5  1  0  0  0
  5  6  2  0  0  0
  6  7  1  0  0  0
  7  8  2  0  0  0
  8  9  1  0  0  0
  9 10  2  0  0  0
  9 11  1  0  0  0
 11 12  1  0  0  0
 12 13  2  0  0  0
 12  1  1  0  0  0
  1 31  1  0  0  0
 32 31  1  0  0  0
 32 33  1  0  0  0
 33 34  1  0  0  0
 34 35  1  0  0  0
 35 36  1  0  0  0
  1  2  1  0  0  0
  2  3  2  0  0  0
  2 14  1  0  0  0
 14 15  2  0  0  0
 15 16  1  0  0  0
 16 17  2  0  0  0
 17 18  1  0  0  0
 18 19  2  0  0  0
 17 20  1  0  0  0
 20 21  2  0  0  0
 20 22  2  0  0  0
 20 23  1  0  0  0
 23 24  1  0  0  0
 23 25  1  0  0  0
 26 25  1  0  0  0
 26 27  1  0  0  0
 27 28  1  0  0  0
 28 29  1  0  0  0
 29 30  1  0  0  0
 10  5  1  0  0  0
 13  8  1  0  0  0
 36 32  1  0  0  0
 19 14  1  0  0  0
 30 26  1  0  0  0
M  END
> <minimizedAffinity>
-6.15701

$$$$



 38 42  0  0  0  0  0  0  0  0999 V2000
   -2.9443   25.9638   12.7850 C   0  0  0  0  0  0  0  0  0  0  0  0
   -2.5979   26.3951   11.3906 C   0  0  0  0  0  0  0  0  0  0  0  0
   -3.6880   26.7350   10.4180 C   0  0  0  0  0  0  0  0  0  0  0  0
   -3.3415   27.1662    9.0238 C   0  0  0  0  0  0  0  0  0  0  0  0
   -1.9049   27.2576    8.6022 C   0  0  0  0  0  0  0  0  0  0  0  0
   -0.8147   26.9178    9.5748 C   0  0  0  0  0  0  0  0  0  0  0  0
   -1.1612   26.4866   10.9691 C   0  0  0  0  0  0  0  0  0  0  0  0
   -0.0711   26.1467   11.9418 C   0  0  0  0  0  0  0  0  0  0  0  0
    1.3656   26.2381   11.5202 O   0  0  0  0  0  0  0  0  0  0  0  0
   -0.4176   25.7154   13.3360 N   0  0  0  0  0  0  0  0  0  0  0  0
   -1.8542   25.6240   13.7576 C   0  0  0  0  0  0  0  0  0  0  0  0
   -1.8431   25.3267   14.6957 O   0  0  0  0  0  0  0  0  0  0  0  0
    0.6726   25.3756   14.3087 C   0  0  0  0  0  0  0  0  0  0  0  0
    1.2658   26.4470   15.1748 C   0  0  0  0  0  0  0  0  0  0  0  0
    2.3559   26.1072   16.1475 C   0  0  0  0  0  0  0  0  0  0  0  0
    2.8528   24.6960   16.2541 C   0  0  0  0  0  0  0  0  0  0  0  0
    2.2596   23.6245   15.3880 C   0  0  0  0  0  0  0  0  0  0  0  0
    1.1695   23.9643   14.4153 C   0  0  0  0  0  0  0  0  0  0  0  0
    2.7566   22.2132   15.4946 C   0  0  0  0  0  0  0  0  0  0  0  0
    3.2536   20.8020   15.6013 F   0  0  0  0  0  0  0  0  0  0  0  0
    1.5330   21.7280   14.7754 F   0  0  0  0  0  0  0  0  0  0  0  0
    3.9802   22.6985   16.2138 F   0  0  0  0  0  0  0  0  0  0  0  0
   -4.3209   26.1800   12.2295 C   0  0  0  0  0  0  0  0  0  0  0  0
   -7.4970   25.4658   12.4565 C   0  0  0  0  0  0  0  0  0  0  0  0
   -6.8004   26.6106   13.1304 C   0  0  0  0  0  0  0  0  0  0  0  0
   -5.3404   26.9389   13.0261 C   0  0  0  0  0  0  0  0  0  0  0  0
   -5.0791   28.1593   13.8582 C   0  0  0  0  0  0  0  0  0  0  0  0
   -6.3774   28.5853   14.4768 O   0  0  0  0  0  0  0  0  0  0  0  0
   -7.4413   27.6281   14.0270 N   0  0  0  0  0  0  0  0  0  0  0  0
   -3.7523   28.8350   14.0397 C   0  0  0  0  0  0  0  0  0  0  0  0
   -3.7689   25.6076   13.9863 C   0  0  0  0  0  0  0  0  0  0  0  0
   -4.2742   24.2061   14.1604 C   0  0  0  0  0  0  0  0  0  0  0  0
   -5.4066   23.7809   15.0474 C   0  0  0  0  0  0  0  0  0  0  0  0
   -5.5681   22.2957   14.9132 N   0  0  0  0  0  0  0  0  0  0  0  0
   -4.5354   21.8030   13.9432 O   0  0  0  0  0  0  0  0  0  0  0  0
   -3.7357   22.9836   13.4779 C   0  0  0  0  0  0  0  0  0  0  0  0
   -2.5975   22.9481   12.5016 C   0  0  0  0  0  0  0  0  0  0  0  0
   -6.2325   24.6827   15.9162 C   0  0  0  0  0  0  0  0  0  0  0  0
 24 25  1  0  0  0
 25 26  1  0  0  0
 26 27  2  0  0  0
 27 28  1  0  0  0
 28 29  1  0  0  0
 27 30  1  0  0  0
 26 23  1  0  0  0
 23  1  1  0  0  0
  1  2  1  0  0  0
  2  3  2  0  0  0
  3  4  1  0  0  0
  4  5  2  0  0  0
  5  6  1  0  0  0
  6  7  2  0  0  0
  7  8  1  0  0  0
  8  9  2  0  0  0
  8 10  1  0  0  0
 10 11  1  0  0  0
 11 12  2  0  0  0
 10 13  1  0  0  0
 13 14  2  0  0  0
 14 15  1  0  0  0
 15 16  2  0  0  0
 16 17  1  0  0  0
 17 18  2  0  0  0
 17 19  1  0  0  0
 19 20  1  0  0  0
 19 21  1  0  0  0
 19 22  1  0  0  0
  1 31  1  0  0  0
 31 32  1  0  0  0
 32 33  1  0  0  0
 33 34  2  0  0  0
 34 35  1  0  0  0
 35 36  1  0  0  0
 36 37  1  0  0  0
 33 38  1  0  0  0
 29 25  2  0  0  0
 11  1  1  0  0  0
  7  2  1  0  0  0
 18 13  1  0  0  0
 36 32  2  0  0  0
M  END
> <minimizedAffinity>
-5.01922

$$$$



 37 40  0  0  0  0  0  0  0  0999 V2000
   -2.1309   25.4855   12.4818 C   0  0  0  0  0  0  0  0  0  0  0  0
   -3.5857   25.5587   12.8395 C   0  0  0  0  0  0  0  0  0  0  0  0
   -4.5736   26.1091   11.8541 C   0  0  0  0  0  0  0  0  0  0  0  0
   -4.1067   26.5863   10.5109 N   0  0  0  0  0  0  0  0  0  0  0  0
   -2.6519   26.5131   10.1531 C   0  0  0  0  0  0  0  0  0  0  0  0
   -2.1849   26.9902    8.8099 C   0  0  0  0  0  0  0  0  0  0  0  0
   -1.6640   25.9627   11.1386 C   0  0  0  0  0  0  0  0  0  0  0  0
   -6.0285   26.1823   12.2119 C   0  0  0  0  0  0  0  0  0  0  0  0
   -6.4955   25.7051   13.5551 C   0  0  0  0  0  0  0  0  0  0  0  0
   -5.5075   25.1548   14.5406 C   0  0  0  0  0  0  0  0  0  0  0  0
   -4.0527   25.0816   14.1828 C   0  0  0  0  0  0  0  0  0  0  0  0
   -3.0648   24.5312   15.1683 O   0  0  0  0  0  0  0  0  0  0  0  0
    0.6059   25.3145   15.3507 C   0  0  0  0  0  0  0  0  0  0  0  0
   -0.3820   25.8649   14.3652 C   0  0  0  0  0  0  0  0  0  0  0  0
   -1.1430   24.9351   13.4672 C   0  0  0  0  0  0  0  0  0  0  0  0
   -0.9160   23.4550   13.5547 C   0  0  0  0  0  0  0  0  0  0  0  0
    0.0719   22.9046   14.5401 C   0  0  0  0  0  0  0  0  0  0  0  0
    0.8329   23.8344   15.4381 C   0  0  0  0  0  0  0  0  0  0  0  0
    2.8653   26.2832   16.1915 C   0  0  0  0  0  0  0  0  0  0  0  0
    1.3669   26.2443   16.2487 O   0  0  0  0  0  0  0  0  0  0  0  0
    1.8208   23.2840   16.4235 O   0  0  0  0  0  0  0  0  0  0  0  0
    3.1733   22.8329   15.9574 C   0  0  0  0  0  0  0  0  0  0  0  0
    0.2988   21.4244   14.6275 O   0  0  0  0  0  0  0  0  0  0  0  0
    0.2539   20.7362   15.9595 C   0  0  0  0  0  0  0  0  0  0  0  0
   -7.9504   25.7784   13.9130 C   0  0  0  0  0  0  0  0  0  0  0  0
   -8.7157   27.0259   14.2414 C   0  0  0  0  0  0  0  0  0  0  0  0
  -10.1337   26.6355   14.5366 C   0  0  0  0  0  0  0  0  0  0  0  0
  -10.2446   25.1467   14.3906 C   0  0  0  0  0  0  0  0  0  0  0  0
   -8.8952   24.6170   14.0051 S   0  0  0  0  0  0  0  0  0  0  0  0
   -0.2091   25.8895   10.7807 C   0  0  0  0  0  0  0  0  0  0  0  0
    0.7221   26.9889   11.1980 O   0  0  0  0  0  0  0  0  0  0  0  0
    0.3146   24.7169   10.0057 O   0  0  0  0  0  0  0  0  0  0  0  0
    1.0283   24.9361    8.7047 C   0  0  0  0  0  0  0  0  0  0  0  0
   -5.9745   24.6776   15.8839 C   0  0  0  0  0  0  0  0  0  0  0  0
   -6.4911   25.6615   16.8913 O   0  0  0  0  0  0  0  0  0  0  0  0
   -5.9249   23.2165   16.2196 O   0  0  0  0  0  0  0  0  0  0  0  0
   -7.1553   22.5197   16.7201 C   0  0  0  0  0  0  0  0  0  0  0  0
 19 20  1  0  0  0
 20 13  1  0  0  0
 13 14  2  0  0  0
 14 15  1  0  0  0
 15 16  2  0  0  0
 16 17  1  0  0  0
 17 18  2  0  0  0
 18 21  1  0  0  0
 21 22  1  0  0  0
 17 23  1  0  0  0
 23 24  1  0  0  0
  1 15  1  0  0  0
  1  2  1  0  0  0
  2  3  1  0  0  0
  3  4  2  0  0  0
  4  5  1  0  0  0
  5  6  2  0  0  0
  5  7  1  0  0  0
  7 30  1  0  0  0
 30 31  2  0  0  0
 30 32  1  0  0  0
 32 33  1  0  0  0
  3  8  1  0  0  0
  8  9  1  0  0  0
  9 10  1  0  0  0
 10 11  1  0  0  0
 11 12  2  0  0  0
 10 34  1  0  0  0
 34 35  2  0  0  0
 34 36  1  0  0  0
 36 37  1  0  0  0
  9 25  1  0  0  0
 25 26  2  0  0  0
 26 27  1  0  0  0
 27 28  2  0  0  0
 28 29  1  0  0  0
 18 13  1  0  0  0
  7  1  1  0  0  0
  2 11  1  0  0  0
 29 25  1  0  0  0
M  END
> <minimizedAffinity>
-2.95318

$$$$



 39 44  0  0  0  0  0  0  0  0999 V2000
   -3.2239   23.7646   12.4435 C   0  0  0  0  0  0  0  0  0  0  0  0
   -4.2809   23.6346   13.4999 C   0  0  0  0  0  0  0  0  0  0  0  0
   -5.7109   23.4099   13.1063 C   0  0  0  0  0  0  0  0  0  0  0  0
   -6.7679   23.2800   14.1626 C   0  0  0  0  0  0  0  0  0  0  0  0
   -8.1978   23.0553   13.7691 C   0  0  0  0  0  0  0  0  0  0  0  0
   -9.2548   22.9253   14.8254 C   0  0  0  0  0  0  0  0  0  0  0  0
   -8.8820   23.0200   16.2752 C   0  0  0  0  0  0  0  0  0  0  0  0
   -7.4521   23.2447   16.6688 C   0  0  0  0  0  0  0  0  0  0  0  0
   -6.3949   23.3747   15.6125 C   0  0  0  0  0  0  0  0  0  0  0  0
   -4.9651   23.5994   16.0060 N   0  0  0  0  0  0  0  0  0  0  0  0
   -3.9080   23.7294   14.9497 C   0  0  0  0  0  0  0  0  0  0  0  0
  -10.1323   22.8546   17.0872 O   0  0  0  0  0  0  0  0  0  0  0  0
  -11.2779   22.6576   16.1392 C   0  0  0  0  0  0  0  0  0  0  0  0
  -10.7356   22.7013   14.7413 O   0  0  0  0  0  0  0  0  0  0  0  0
   -2.4782   23.9540   15.3431 N   0  0  0  0  0  0  0  0  0  0  0  0
   -1.9115   25.3428   15.3499 C   0  0  0  0  0  0  0  0  0  0  0  0
   -0.4815   25.5676   15.7434 C   0  0  0  0  0  0  0  0  0  0  0  0
    0.3817   24.4035   16.1302 O   0  0  0  0  0  0  0  0  0  0  0  0
   -0.1850   23.0146   16.1235 C   0  0  0  0  0  0  0  0  0  0  0  0
   -1.6149   22.7899   15.7300 C   0  0  0  0  0  0  0  0  0  0  0  0
   -2.2694   25.1768   10.4828 C   0  0  0  0  0  0  0  0  0  0  0  0
   -1.8639   23.9185    9.7739 O   0  0  0  0  0  0  0  0  0  0  0  0
   -2.9494   25.0999   11.8175 N   0  0  0  0  0  0  0  0  0  0  0  0
   -1.9949   26.5120    9.8567 C   0  0  0  0  0  0  0  0  0  0  0  0
   -0.6664   27.1776   10.0618 C   0  0  0  0  0  0  0  0  0  0  0  0
    2.4122   24.4627   13.3834 C   0  0  0  0  0  0  0  0  0  0  0  0
    1.5972   25.5624   12.7697 C   0  0  0  0  0  0  0  0  0  0  0  0
    1.3786   26.9276   13.3514 C   0  0  0  0  0  0  0  0  0  0  0  0
    0.5041   27.6988   12.4078 C   0  0  0  0  0  0  0  0  0  0  0  0
    0.1822   26.8102   11.2429 N   0  0  0  0  0  0  0  0  0  0  0  0
    0.8578   25.4898   11.4667 N   0  0  0  0  0  0  0  0  0  0  0  0
   -3.3549   26.3581   12.5264 C   0  0  0  0  0  0  0  0  0  0  0  0
   -4.7327   26.9182   12.3308 C   0  0  0  0  0  0  0  0  0  0  0  0
   -5.6747   27.0158   13.4940 C   0  0  0  0  0  0  0  0  0  0  0  0
   -5.1434   27.3011   14.8674 C   0  0  0  0  0  0  0  0  0  0  0  0
   -6.0855   27.3987   16.0306 C   0  0  0  0  0  0  0  0  0  0  0  0
   -7.5587   27.2109   15.8204 C   0  0  0  0  0  0  0  0  0  0  0  0
   -8.0900   26.9256   14.4469 C   0  0  0  0  0  0  0  0  0  0  0  0
   -7.1480   26.8280   13.2837 C   0  0  0  0  0  0  0  0  0  0  0  0
 26 27  1  0  0  0
 27 28  1  0  0  0
 28 29  2  0  0  0
 29 30  1  0  0  0
 30 31  1  0  0  0
 30 25  1  0  0  0
 25 24  1  0  0  0
 24 21  1  0  0  0
 21 22  2  0  0  0
 21 23  1  0  0  0
 23 32  1  0  0  0
 32 33  1  0  0  0
 33 34  1  0  0  0
 34 35  2  0  0  0
 35 36  1  0  0  0
 36 37  1  0  0  0
 37 38  1  0  0  0
 38 39  1  0  0  0
 23  1  1  0  0  0
  1  2  1  0  0  0
  2  3  2  0  0  0
  3  4  1  0  0  0
  4  5  2  0  0  0
  5  6  1  0  0  0
  6  7  2  0  0  0
  7  8  1  0  0  0
  8  9  2  0  0  0
  9 10  1  0  0  0
 10 11  2  0  0  0
 11 15  1  0  0  0
 15 16  1  0  0  0
 16 17  1  0  0  0
 17 18  1  0  0  0
 18 19  1  0  0  0
 19 20  1  0  0  0
  7 12  1  0  0  0
 12 13  1  0  0  0
 13 14  1  0  0  0
 31 27  2  0  0  0
 39 34  1  0  0  0
 11  2  1  0  0  0
  9  4  1  0  0  0
 14  6  1  0  0  0
 20 15  1  0  0  0
M  END
> <minimizedAffinity>
-8.27785

$$$$



 34 38  0  0  0  0  0  0  0  0999 V2000
   -9.2340   28.9729   16.9099 C   0  0  0  0  0  0  0  0  0  0  0  0
   -8.4916   27.8830   16.1950 C   0  0  0  0  0  0  0  0  0  0  0  0
   -7.3593   27.1278   15.5646 C   0  0  0  0  0  0  0  0  0  0  0  0
   -7.6080   25.7874   14.9390 C   0  0  0  0  0  0  0  0  0  0  0  0
   -8.9890   25.2022   14.9436 C   0  0  0  0  0  0  0  0  0  0  0  0
   -9.2377   23.8618   14.3180 C   0  0  0  0  0  0  0  0  0  0  0  0
   -8.1054   23.1066   13.6876 N   0  0  0  0  0  0  0  0  0  0  0  0
   -6.7242   23.6918   13.6829 C   0  0  0  0  0  0  0  0  0  0  0  0
   -6.4755   25.0322   14.3086 C   0  0  0  0  0  0  0  0  0  0  0  0
   -5.0185   25.3531   14.1532 C   0  0  0  0  0  0  0  0  0  0  0  0
   -4.3667   24.2110   13.4316 C   0  0  0  0  0  0  0  0  0  0  0  0
   -5.4208   23.1843   13.1409 S   0  0  0  0  0  0  0  0  0  0  0  0
   -2.8975   24.2536   13.1324 C   0  0  0  0  0  0  0  0  0  0  0  0
   -2.0800   25.4382   13.5548 N   0  0  0  0  0  0  0  0  0  0  0  0
   -2.7319   26.5803   14.2765 C   0  0  0  0  0  0  0  0  0  0  0  0
   -4.2010   26.5377   14.5757 N   0  0  0  0  0  0  0  0  0  0  0  0
  -10.1214   25.9574   15.5740 C   0  0  0  0  0  0  0  0  0  0  0  0
   -9.8727   27.2978   16.1996 O   0  0  0  0  0  0  0  0  0  0  0  0
   -7.3683   28.8468   16.4386 C   0  0  0  0  0  0  0  0  0  0  0  0
  -10.6188   23.2765   14.3227 N   0  0  0  0  0  0  0  0  0  0  0  0
  -11.7280   23.9775   15.0496 C   0  0  0  0  0  0  0  0  0  0  0  0
  -13.1091   23.3923   15.0543 C   0  0  0  0  0  0  0  0  0  0  0  0
  -13.3811   22.1061   14.3320 O   0  0  0  0  0  0  0  0  0  0  0  0
  -12.2720   21.4051   13.6051 C   0  0  0  0  0  0  0  0  0  0  0  0
  -10.8908   21.9903   13.6004 C   0  0  0  0  0  0  0  0  0  0  0  0
   -1.9143   27.7649   14.6989 S   0  0  0  0  0  0  0  0  0  0  0  0
   -0.5242   27.9454   14.1654 C   0  0  0  0  0  0  0  0  0  0  0  0
   -2.2457   23.1115   12.4107 S   0  0  0  0  0  0  0  0  0  0  0  0
   -1.2577   23.3826   11.3151 C   0  0  0  0  0  0  0  0  0  0  0  0
   -1.6343   24.2747   10.1694 C   0  0  0  0  0  0  0  0  0  0  0  0
   -1.6074   25.7647   10.3388 O   0  0  0  0  0  0  0  0  0  0  0  0
   -2.8468   26.5709   10.0857 C   0  0  0  0  0  0  0  0  0  0  0  0
   -2.0378   23.6765    8.8543 O   0  0  0  0  0  0  0  0  0  0  0  0
   -0.9943   23.1195    7.9320 C   0  0  0  0  0  0  0  0  0  0  0  0
  1  2  1  0  0  0
  2  3  1  0  0  0
  3  4  1  0  0  0
  4  5  2  0  0  0
  5  6  1  0  0  0
  6  7  2  0  0  0
  7  8  1  0  0  0
  8  9  2  0  0  0
  9 10  1  0  0  0
 10 11  2  0  0  0
 11 12  1  0  0  0
 11 13  1  0  0  0
 13 14  2  0  0  0
 14 15  1  0  0  0
 15 16  2  0  0  0
 15 26  1  0  0  0
 26 27  1  0  0  0
 13 28  1  0  0  0
 28 29  1  0  0  0
 29 30  1  0  0  0
 30 31  1  0  0  0
 31 32  1  0  0  0
 30 33  1  0  0  0
 33 34  1  0  0  0
  6 20  1  0  0  0
 20 21  1  0  0  0
 21 22  1  0  0  0
 22 23  1  0  0  0
 23 24  1  0  0  0
 24 25  1  0  0  0
  5 17  1  0  0  0
 17 18  1  0  0  0
  2 19  1  0  0  0
 18  2  1  0  0  0
  9  4  1  0  0  0
 12  8  1  0  0  0
 16 10  1  0  0  0
 25 20  1  0  0  0
M  END
> <minimizedAffinity>
-3.88330

$$$$



 36 40  0  0  0  0  0  0  0  0999 V2000
   -2.2629   25.6484   13.9655 N   0  0  0  0  0  0  0  0  0  0  0  0
   -3.1261   26.6265   14.7059 C   0  0  0  0  0  0  0  0  0  0  0  0
   -2.4965   27.7489   15.4766 O   0  0  0  0  0  0  0  0  0  0  0  0
   -4.6188   26.4822   14.6756 C   0  0  0  0  0  0  0  0  0  0  0  0
   -5.4820   27.4603   15.4160 C   0  0  0  0  0  0  0  0  0  0  0  0
   -6.9747   27.3160   15.3857 C   0  0  0  0  0  0  0  0  0  0  0  0
   -7.6043   26.1936   14.6151 C   0  0  0  0  0  0  0  0  0  0  0  0
   -6.7411   25.2155   13.8747 C   0  0  0  0  0  0  0  0  0  0  0  0
   -5.2484   25.3598   13.9050 C   0  0  0  0  0  0  0  0  0  0  0  0
   -4.3851   24.3817   13.1646 N   0  0  0  0  0  0  0  0  0  0  0  0
   -2.8924   24.5260   13.1949 C   0  0  0  0  0  0  0  0  0  0  0  0
   -9.0970   26.0493   14.5848 C   0  0  0  0  0  0  0  0  0  0  0  0
   -9.9513   27.1892   14.1148 O   0  0  0  0  0  0  0  0  0  0  0  0
   -9.7355   24.7653   15.0246 N   0  0  0  0  0  0  0  0  0  0  0  0
   -8.8812   23.6254   15.4946 C   0  0  0  0  0  0  0  0  0  0  0  0
   -9.5198   22.3412   15.9344 C   0  0  0  0  0  0  0  0  0  0  0  0
  -11.0125   22.1970   15.9041 O   0  0  0  0  0  0  0  0  0  0  0  0
  -11.8667   23.3369   15.4341 C   0  0  0  0  0  0  0  0  0  0  0  0
  -11.2283   24.6210   14.9943 C   0  0  0  0  0  0  0  0  0  0  0  0
    1.5281   25.1869   15.0453 C   0  0  0  0  0  0  0  0  0  0  0  0
    2.2153   26.0812   14.0564 C   0  0  0  0  0  0  0  0  0  0  0  0
    1.4099   26.8311   13.0372 C   0  0  0  0  0  0  0  0  0  0  0  0
   -0.0828   26.6869   13.0069 C   0  0  0  0  0  0  0  0  0  0  0  0
   -0.7701   25.7927   13.9958 C   0  0  0  0  0  0  0  0  0  0  0  0
    0.0354   25.0427   15.0150 C   0  0  0  0  0  0  0  0  0  0  0  0
    2.9580   23.1210   15.7065 C   0  0  0  0  0  0  0  0  0  0  0  0
    2.3335   24.4370   16.0645 O   0  0  0  0  0  0  0  0  0  0  0  0
   -2.0291   23.5479   12.4545 S   0  0  0  0  0  0  0  0  0  0  0  0
   -1.9456   23.6043   10.9579 C   0  0  0  0  0  0  0  0  0  0  0  0
   -1.4882   24.8613   10.2791 C   0  0  0  0  0  0  0  0  0  0  0  0
   -2.4587   25.9794   10.0383 C   0  0  0  0  0  0  0  0  0  0  0  0
   -2.0014   27.2364    9.3596 C   0  0  0  0  0  0  0  0  0  0  0  0
   -0.5734   27.3753    8.9215 C   0  0  0  0  0  0  0  0  0  0  0  0
    0.3971   26.2572    9.1623 C   0  0  0  0  0  0  0  0  0  0  0  0
   -0.0604   25.0002    9.8411 C   0  0  0  0  0  0  0  0  0  0  0  0
   -0.1161   28.6323    8.2428 Cl  0  0  0  0  0  0  0  0  0  0  0  0
 26 27  1  0  0  0
 27 20  1  0  0  0
 20 21  2  0  0  0
 21 22  1  0  0  0
 22 23  2  0  0  0
 23 24  1  0  0  0
 24 25  2  0  0  0
 24  1  1  0  0  0
  1  2  1  0  0  0
  2  3  2  0  0  0
  2  4  1  0  0  0
  4  5  2  0  0  0
  5  6  1  0  0  0
  6  7  2  0  0  0
  7  8  1  0  0  0
  8  9  2  0  0  0
  9 10  1  0  0  0
 10 11  2  0  0  0
 11 28  1  0  0  0
 28 29  1  0  0  0
 29 30  1  0  0  0
 30 31  2  0  0  0
 31 32  1  0  0  0
 32 33  2  0  0  0
 33 34  1  0  0  0
 34 35  2  0  0  0
 33 36  1  0  0  0
  7 12  1  0  0  0
 12 13  2  0  0  0
 12 14  1  0  0  0
 14 15  1  0  0  0
 15 16  1  0  0  0
 16 17  1  0  0  0
 17 18  1  0  0  0
 18 19  1  0  0  0
 25 20  1  0  0  0
 11  1  1  0  0  0
  9  4  1  0  0  0
 35 30  1  0  0  0
 19 14  1  0  0  0
M  END
> <minimizedAffinity>
-7.67306

$$$$



 37 41  0  0  0  0  0  0  0  0999 V2000
   -3.9769   25.2651   14.9511 C   0  0  0  0  0  0  0  0  0  0  0  0
   -2.5705   24.7614   15.0865 C   0  0  0  0  0  0  0  0  0  0  0  0
   -1.9791   23.3890   14.9575 C   0  0  0  0  0  0  0  0  0  0  0  0
   -2.8612   22.2195   14.6347 O   0  0  0  0  0  0  0  0  0  0  0  0
   -0.5056   23.1860   15.1513 C   0  0  0  0  0  0  0  0  0  0  0  0
    0.0858   21.8136   15.0223 C   0  0  0  0  0  0  0  0  0  0  0  0
    1.5593   21.6106   15.2161 C   0  0  0  0  0  0  0  0  0  0  0  0
    2.4414   22.7801   15.5389 C   0  0  0  0  0  0  0  0  0  0  0  0
    1.8500   24.1525   15.6679 C   0  0  0  0  0  0  0  0  0  0  0  0
    0.3765   24.3554   15.4741 C   0  0  0  0  0  0  0  0  0  0  0  0
   -0.2149   25.7279   15.6031 O   0  0  0  0  0  0  0  0  0  0  0  0
   -1.6884   25.9309   15.4093 C   0  0  0  0  0  0  0  0  0  0  0  0
   -2.5497   27.1573   15.4735 C   0  0  0  0  0  0  0  0  0  0  0  0
   -2.0791   28.5506   15.7689 O   0  0  0  0  0  0  0  0  0  0  0  0
   -3.9641   26.7458   15.1903 N   0  0  0  0  0  0  0  0  0  0  0  0
    2.1508   20.2381   15.0871 F   0  0  0  0  0  0  0  0  0  0  0  0
   -7.5989   22.7715   13.9953 C   0  0  0  0  0  0  0  0  0  0  0  0
   -6.8351   23.4390   12.8903 C   0  0  0  0  0  0  0  0  0  0  0  0
   -5.6277   24.2702   13.2090 C   0  0  0  0  0  0  0  0  0  0  0  0
   -5.1843   24.4339   14.6326 C   0  0  0  0  0  0  0  0  0  0  0  0
   -5.9481   23.7663   15.7375 C   0  0  0  0  0  0  0  0  0  0  0  0
   -7.1554   22.9351   15.4188 C   0  0  0  0  0  0  0  0  0  0  0  0
   -7.9193   22.2676   16.5238 O   0  0  0  0  0  0  0  0  0  0  0  0
   -8.1915   23.0068   17.8003 C   0  0  0  0  0  0  0  0  0  0  0  0
   -8.8062   21.9403   13.6767 O   0  0  0  0  0  0  0  0  0  0  0  0
  -10.1788   22.4656   13.9767 C   0  0  0  0  0  0  0  0  0  0  0  0
  -11.3533   21.5326   13.9866 C   0  0  0  0  0  0  0  0  0  0  0  0
  -12.5928   21.8789   13.2159 C   0  0  0  0  0  0  0  0  0  0  0  0
  -13.1324   23.2780   13.2526 C   0  0  0  0  0  0  0  0  0  0  0  0
  -13.1604   24.7062   15.4227 C   0  0  0  0  0  0  0  0  0  0  0  0
  -13.8509   23.7729   14.4727 C   0  0  0  0  0  0  0  0  0  0  0  0
   -5.1563   27.6554   15.1529 C   0  0  0  0  0  0  0  0  0  0  0  0
   -5.4308   28.7071   14.1192 N   0  0  0  0  0  0  0  0  0  0  0  0
   -6.7274   29.3746   14.4701 N   0  0  0  0  0  0  0  0  0  0  0  0
   -7.2542   28.7354   15.7206 C   0  0  0  0  0  0  0  0  0  0  0  0
   -6.2833   27.6729   16.1426 S   0  0  0  0  0  0  0  0  0  0  0  0
   -8.5285   29.0956   16.4254 C   0  0  0  0  0  0  0  0  0  0  0  0
 30 31  1  0  0  0
 31 29  1  0  0  0
 29 28  1  0  0  0
 28 27  1  0  0  0
 27 26  1  0  0  0
 26 25  1  0  0  0
 25 17  1  0  0  0
 17 18  2  0  0  0
 18 19  1  0  0  0
 19 20  2  0  0  0
 20 21  1  0  0  0
 21 22  2  0  0  0
 22 23  1  0  0  0
 23 24  1  0  0  0
  1 20  1  0  0  0
  1  2  1  0  0  0
  2  3  1  0  0  0
  3  4  2  0  0  0
  3  5  1  0  0  0
  5  6  2  0  0  0
  6  7  1  0  0  0
  7  8  2  0  0  0
  8  9  1  0  0  0
  9 10  2  0  0  0
 10 11  1  0  0  0
 11 12  1  0  0  0
 12 13  1  0  0  0
 13 14  2  0  0  0
 13 15  1  0  0  0
 15 32  1  0  0  0
 32 33  2  0  0  0
 33 34  1  0  0  0
 34 35  2  0  0  0
 35 36  1  0  0  0
 35 37  1  0  0  0
  7 16  1  0  0  0
 22 17  1  0  0  0
 15  1  1  0  0  0
 12  2  2  0  0  0
 10  5  1  0  0  0
 36 32  1  0  0  0
M  END
> <minimizedAffinity>
-6.61946

$$$$



 36 40  0  0  0  0  0  0  0  0999 V2000
   -6.7441   27.6869   16.4590 C   0  0  0  0  0  0  0  0  0  0  0  0
   -7.8023   26.6345   16.3091 N   0  0  0  0  0  0  0  0  0  0  0  0
   -7.6072   25.5076   15.3386 C   0  0  0  0  0  0  0  0  0  0  0  0
   -6.3539   25.4331   14.5179 C   0  0  0  0  0  0  0  0  0  0  0  0
   -6.4406   24.2134   13.6491 C   0  0  0  0  0  0  0  0  0  0  0  0
   -7.7475   23.5340   13.9328 N   0  0  0  0  0  0  0  0  0  0  0  0
   -8.4686   24.3339   14.9770 N   0  0  0  0  0  0  0  0  0  0  0  0
   -5.4026   23.7537   12.6687 C   0  0  0  0  0  0  0  0  0  0  0  0
   -5.2957   26.4855   14.6677 C   0  0  0  0  0  0  0  0  0  0  0  0
   -5.4908   27.6124   15.6383 N   0  0  0  0  0  0  0  0  0  0  0  0
   -4.0423   26.4110   13.8470 N   0  0  0  0  0  0  0  0  0  0  0  0
   -4.1421   26.9614   12.4552 C   0  0  0  0  0  0  0  0  0  0  0  0
   -3.0791   27.0327   11.3992 C   0  0  0  0  0  0  0  0  0  0  0  0
   -1.6538   26.5713   11.4744 C   0  0  0  0  0  0  0  0  0  0  0  0
   -0.9395   25.9247   12.6239 N   0  0  0  0  0  0  0  0  0  0  0  0
   -1.4740   25.5797   13.9823 C   0  0  0  0  0  0  0  0  0  0  0  0
   -2.8549   25.7961   14.5267 C   0  0  0  0  0  0  0  0  0  0  0  0
    0.4997   25.5770   12.3832 C   0  0  0  0  0  0  0  0  0  0  0  0
    1.1328   25.8798   11.0576 O   0  0  0  0  0  0  0  0  0  0  0  0
    1.3057   24.9266   13.4683 C   0  0  0  0  0  0  0  0  0  0  0  0
    2.5154   25.6195   14.0221 C   0  0  0  0  0  0  0  0  0  0  0  0
    3.3213   24.9692   15.1070 C   0  0  0  0  0  0  0  0  0  0  0  0
    2.9177   23.6256   15.6384 C   0  0  0  0  0  0  0  0  0  0  0  0
    1.7082   22.9327   15.0847 C   0  0  0  0  0  0  0  0  0  0  0  0
    0.9021   23.5831   13.9996 C   0  0  0  0  0  0  0  0  0  0  0  0
    1.3046   21.5892   15.6159 Cl  0  0  0  0  0  0  0  0  0  0  0  0
    3.7238   22.9753   16.7234 Cl  0  0  0  0  0  0  0  0  0  0  0  0
   -9.8145   24.0159   15.5577 C   0  0  0  0  0  0  0  0  0  0  0  0
  -10.9892   24.8985   15.2555 C   0  0  0  0  0  0  0  0  0  0  0  0
  -12.3352   24.5806   15.8361 C   0  0  0  0  0  0  0  0  0  0  0  0
  -12.5066   23.3801   16.7189 C   0  0  0  0  0  0  0  0  0  0  0  0
  -11.3319   22.4975   17.0211 C   0  0  0  0  0  0  0  0  0  0  0  0
   -9.9859   22.8154   16.4405 C   0  0  0  0  0  0  0  0  0  0  0  0
   -6.9392   28.8138   17.4295 C   0  0  0  0  0  0  0  0  0  0  0  0
   -5.6891   29.7353   19.5123 C   0  0  0  0  0  0  0  0  0  0  0  0
   -5.7488   29.4991   18.0323 C   0  0  0  0  0  0  0  0  0  0  0  0
 35 36  1  0  0  0
 36 34  1  0  0  0
 34  1  1  0  0  0
  1  2  2  0  0  0
  2  3  1  0  0  0
  3  4  2  0  0  0
  4  5  1  0  0  0
  5  6  2  0  0  0
  6  7  1  0  0  0
  7 28  1  0  0  0
 28 29  2  0  0  0
 29 30  1  0  0  0
 30 31  2  0  0  0
 31 32  1  0  0  0
 32 33  2  0  0  0
  5  8  1  0  0  0
  4  9  1  0  0  0
  9 10  2  0  0  0
  9 11  1  0  0  0
 11 12  1  0  0  0
 12 13  1  0  0  0
 13 14  1  0  0  0
 14 15  1  0  0  0
 15 16  1  0  0  0
 16 17  1  0  0  0
 15 18  1  0  0  0
 18 19  2  0  0  0
 18 20  1  0  0  0
 20 21  2  0  0  0
 21 22  1  0  0  0
 22 23  2  0  0  0
 23 24  1  0  0  0
 24 25  2  0  0  0
 24 26  1  0  0  0
 23 27  1  0  0  0
 10  1  1  0  0  0
  7  3  1  0  0  0
 33 28  1  0  0  0
 17 11  1  0  0  0
 25 20  1  0  0  0
M  END
> <minimizedAffinity>
-7.38467

$$$$



 36 40  0  0  0  0  0  0  0  0999 V2000
   -6.1826   25.3138   13.0613 C   0  0  0  0  0  0  0  0  0  0  0  0
   -5.7498   26.0848   11.8495 N   0  0  0  0  0  0  0  0  0  0  0  0
   -4.2502   26.1126   11.8290 C   0  0  0  0  0  0  0  0  0  0  0  0
   -3.7562   25.3588   13.0281 C   0  0  0  0  0  0  0  0  0  0  0  0
   -4.9505   24.8651   13.7897 O   0  0  0  0  0  0  0  0  0  0  0  0
  -10.4313   24.4912   14.2948 C   0  0  0  0  0  0  0  0  0  0  0  0
   -9.9165   25.8999   14.2714 C   0  0  0  0  0  0  0  0  0  0  0  0
   -8.5003   26.1741   13.8602 C   0  0  0  0  0  0  0  0  0  0  0  0
   -7.5988   25.0396   13.4725 C   0  0  0  0  0  0  0  0  0  0  0  0
   -8.1136   23.6310   13.4959 C   0  0  0  0  0  0  0  0  0  0  0  0
   -9.5299   23.3567   13.9070 C   0  0  0  0  0  0  0  0  0  0  0  0
  -11.8476   24.2170   14.7060 S   0  0  0  0  0  0  0  0  0  0  0  0
  -11.7079   25.1920   15.8373 O   0  0  0  0  0  0  0  0  0  0  0  0
  -11.9873   23.2421   13.5747 O   0  0  0  0  0  0  0  0  0  0  0  0
  -15.4697   20.9256   16.4513 C   0  0  0  0  0  0  0  0  0  0  0  0
  -15.0749   22.2971   15.9899 C   0  0  0  0  0  0  0  0  0  0  0  0
  -16.0963   23.3945   15.9396 C   0  0  0  0  0  0  0  0  0  0  0  0
  -15.7014   24.7660   15.4782 C   0  0  0  0  0  0  0  0  0  0  0  0
  -14.2852   25.0402   15.0669 C   0  0  0  0  0  0  0  0  0  0  0  0
  -13.2638   23.9429   15.1172 N   0  0  0  0  0  0  0  0  0  0  0  0
  -13.6587   22.5713   15.5786 C   0  0  0  0  0  0  0  0  0  0  0  0
   -2.3200   25.1376   13.4003 N   0  0  0  0  0  0  0  0  0  0  0  0
   -1.4238   24.3465   12.4943 C   0  0  0  0  0  0  0  0  0  0  0  0
    0.0124   24.1252   12.8664 C   0  0  0  0  0  0  0  0  0  0  0  0
    0.5523   24.6950   14.1446 N   0  0  0  0  0  0  0  0  0  0  0  0
   -0.3440   25.4862   15.0507 C   0  0  0  0  0  0  0  0  0  0  0  0
   -1.7801   25.7074   14.6785 C   0  0  0  0  0  0  0  0  0  0  0  0
    1.9885   24.4738   14.5168 C   0  0  0  0  0  0  0  0  0  0  0  0
    3.0505   25.3908   13.9865 C   0  0  0  0  0  0  0  0  0  0  0  0
    4.4867   25.1695   14.3587 C   0  0  0  0  0  0  0  0  0  0  0  0
    4.8607   24.0312   15.2612 C   0  0  0  0  0  0  0  0  0  0  0  0
    3.7987   23.1143   15.7914 C   0  0  0  0  0  0  0  0  0  0  0  0
    2.3626   23.3355   15.4193 C   0  0  0  0  0  0  0  0  0  0  0  0
    4.1728   21.9760   16.6939 Cl  0  0  0  0  0  0  0  0  0  0  0  0
   -3.3949   26.7775   10.7916 C   0  0  0  0  0  0  0  0  0  0  0  0
   -2.5394   27.4424    9.7542 N   0  0  0  0  0  0  0  0  0  0  0  0
 16 15  1  0  0  0
 16 17  1  0  0  0
 17 18  1  0  0  0
 18 19  1  0  0  0
 19 20  1  0  0  0
 20 21  1  0  0  0
 20 12  1  0  0  0
 12 13  2  0  0  0
 12 14  2  0  0  0
 12  6  1  0  0  0
  6  7  2  0  0  0
  7  8  1  0  0  0
  8  9  2  0  0  0
  9 10  1  0  0  0
 10 11  2  0  0  0
  9  1  1  0  0  0
  1  2  2  0  0  0
  2  3  1  0  0  0
  3  4  2  0  0  0
  4  5  1  0  0  0
  4 22  1  0  0  0
 22 23  1  0  0  0
 23 24  1  0  0  0
 24 25  1  0  0  0
 25 26  1  0  0  0
 26 27  1  0  0  0
 25 28  1  0  0  0
 28 29  2  0  0  0
 29 30  1  0  0  0
 30 31  2  0  0  0
 31 32  1  0  0  0
 32 33  2  0  0  0
 32 34  1  0  0  0
  3 35  1  0  0  0
 35 36  3  0  0  0
 21 16  1  0  0  0
 11  6  1  0  0  0
  5  1  1  0  0  0
 27 22  1  0  0  0
 33 28  1  0  0  0
M  END
> <minimizedAffinity>
8.78976

$$$$



 37 41  0  0  0  0  0  0  0  0999 V2000
   -4.7079   26.2179   13.6154 C   0  0  0  0  0  0  0  0  0  0  0  0
   -5.9593   25.5094   14.0421 C   0  0  0  0  0  0  0  0  0  0  0  0
   -6.7735   24.4306   13.3915 C   0  0  0  0  0  0  0  0  0  0  0  0
   -6.3572   23.8757   12.0615 O   0  0  0  0  0  0  0  0  0  0  0  0
   -8.0040   23.9067   14.0708 C   0  0  0  0  0  0  0  0  0  0  0  0
   -8.8181   22.8280   13.4202 C   0  0  0  0  0  0  0  0  0  0  0  0
  -10.0486   22.3041   14.0995 C   0  0  0  0  0  0  0  0  0  0  0  0
  -10.4648   22.8590   15.4295 C   0  0  0  0  0  0  0  0  0  0  0  0
   -9.6507   23.9377   16.0801 C   0  0  0  0  0  0  0  0  0  0  0  0
   -8.4202   24.4616   15.4008 C   0  0  0  0  0  0  0  0  0  0  0  0
   -7.6060   25.5404   16.0514 O   0  0  0  0  0  0  0  0  0  0  0  0
   -6.3755   26.0643   15.3721 C   0  0  0  0  0  0  0  0  0  0  0  0
   -5.3814   27.1157   15.7673 C   0  0  0  0  0  0  0  0  0  0  0  0
   -5.4125   27.9294   17.0270 O   0  0  0  0  0  0  0  0  0  0  0  0
   -4.3508   27.2107   14.6816 N   0  0  0  0  0  0  0  0  0  0  0  0
  -11.6953   22.3351   16.1089 C   0  0  0  0  0  0  0  0  0  0  0  0
  -10.8628   21.2253   13.4489 Cl  0  0  0  0  0  0  0  0  0  0  0  0
   -2.4260   25.4926    9.8053 C   0  0  0  0  0  0  0  0  0  0  0  0
   -3.3287   26.6847    9.9235 C   0  0  0  0  0  0  0  0  0  0  0  0
   -4.0893   26.9264   11.1935 C   0  0  0  0  0  0  0  0  0  0  0  0
   -3.9473   25.9761   12.3454 C   0  0  0  0  0  0  0  0  0  0  0  0
   -3.0446   24.7840   12.2272 C   0  0  0  0  0  0  0  0  0  0  0  0
   -2.2840   24.5422   10.9571 C   0  0  0  0  0  0  0  0  0  0  0  0
   -1.3813   23.3501   10.8389 O   0  0  0  0  0  0  0  0  0  0  0  0
   -1.3634   22.5455    9.5731 C   0  0  0  0  0  0  0  0  0  0  0  0
   -1.6653   25.2507    8.5352 O   0  0  0  0  0  0  0  0  0  0  0  0
    0.2395   26.9040    9.1582 C   0  0  0  0  0  0  0  0  0  0  0  0
   -0.5807   26.1993    8.1186 C   0  0  0  0  0  0  0  0  0  0  0  0
   -3.1703   28.1360   14.6650 C   0  0  0  0  0  0  0  0  0  0  0  0
   -1.7806   27.5807   14.7661 C   0  0  0  0  0  0  0  0  0  0  0  0
   -1.5637   26.1939   15.2950 C   0  0  0  0  0  0  0  0  0  0  0  0
   -0.3702   25.4004   14.8522 N   0  0  0  0  0  0  0  0  0  0  0  0
    0.3568   25.7774   13.5955 C   0  0  0  0  0  0  0  0  0  0  0  0
    1.5504   24.9840   13.1527 C   0  0  0  0  0  0  0  0  0  0  0  0
    2.0169   23.8136   13.9667 O   0  0  0  0  0  0  0  0  0  0  0  0
    1.2898   23.4367   15.2235 C   0  0  0  0  0  0  0  0  0  0  0  0
    0.0963   24.2301   15.6662 C   0  0  0  0  0  0  0  0  0  0  0  0
 27 28  1  0  0  0
 28 26  1  0  0  0
 26 18  1  0  0  0
 18 19  2  0  0  0
 19 20  1  0  0  0
 20 21  2  0  0  0
 21 22  1  0  0  0
 22 23  2  0  0  0
 23 24  1  0  0  0
 24 25  1  0  0  0
  1 21  1  0  0  0
  1  2  1  0  0  0
  2  3  1  0  0  0
  3  4  2  0  0  0
  3  5  1  0  0  0
  5  6  2  0  0  0
  6  7  1  0  0  0
  7  8  2  0  0  0
  8  9  1  0  0  0
  9 10  2  0  0  0
 10 11  1  0  0  0
 11 12  1  0  0  0
 12 13  1  0  0  0
 13 14  2  0  0  0
 13 15  1  0  0  0
 15 29  1  0  0  0
 29 30  1  0  0  0
 30 31  1  0  0  0
 31 32  1  0  0  0
 32 33  1  0  0  0
 33 34  1  0  0  0
 34 35  1  0  0  0
 35 36  1  0  0  0
 36 37  1  0  0  0
  8 16  1  0  0  0
  7 17  1  0  0  0
 23 18  1  0  0  0
 15  1  1  0  0  0
 12  2  2  0  0  0
 10  5  1  0  0  0
 37 32  1  0  0  0
M  END
> <minimizedAffinity>
-5.04467

$$$$



 36 38  0  0  0  0  0  0  0  0999 V2000
   -5.6208   26.4400   15.6377 N   0  0  0  0  0  0  0  0  0  0  0  0
   -4.6848   25.5149   14.9180 C   0  0  0  0  0  0  0  0  0  0  0  0
   -5.2312   24.4408   14.0249 C   0  0  0  0  0  0  0  0  0  0  0  0
   -6.7136   24.2918   13.8514 C   0  0  0  0  0  0  0  0  0  0  0  0
   -7.6497   25.2169   14.5711 C   0  0  0  0  0  0  0  0  0  0  0  0
   -7.1033   26.2910   15.4643 C   0  0  0  0  0  0  0  0  0  0  0  0
   -8.0394   27.2161   16.1840 O   0  0  0  0  0  0  0  0  0  0  0  0
   -7.3549   23.3815   13.0882 C   0  0  0  0  0  0  0  0  0  0  0  0
   -4.2951   23.5157   13.3052 C   0  0  0  0  0  0  0  0  0  0  0  0
   -3.4355   24.0359   12.1914 C   0  0  0  0  0  0  0  0  0  0  0  0
   -3.4032   25.4488   11.6888 C   0  0  0  0  0  0  0  0  0  0  0  0
   -4.0674   26.5686   12.0462 O   0  0  0  0  0  0  0  0  0  0  0  0
   -2.4051   25.5207   10.5714 N   0  0  0  0  0  0  0  0  0  0  0  0
   -1.8204   24.1521   10.3834 C   0  0  0  0  0  0  0  0  0  0  0  0
   -0.7814   23.7686    9.3719 S   0  0  0  0  0  0  0  0  0  0  0  0
   -2.4573   23.2345   11.3846 S   0  0  0  0  0  0  0  0  0  0  0  0
   -2.0533   26.7459    9.7809 C   0  0  0  0  0  0  0  0  0  0  0  0
   -2.9039   27.1563    8.6155 C   0  0  0  0  0  0  0  0  0  0  0  0
   -0.8510   27.5608   10.1557 C   0  0  0  0  0  0  0  0  0  0  0  0
   -0.0131   27.1630   11.3345 C   0  0  0  0  0  0  0  0  0  0  0  0
   -3.2023   25.6639   15.0915 N   0  0  0  0  0  0  0  0  0  0  0  0
   -2.5430   26.9817   14.8110 C   0  0  0  0  0  0  0  0  0  0  0  0
   -1.0605   27.1307   14.9844 C   0  0  0  0  0  0  0  0  0  0  0  0
   -0.2373   25.9618   15.4384 C   0  0  0  0  0  0  0  0  0  0  0  0
   -0.8966   24.6439   15.7189 C   0  0  0  0  0  0  0  0  0  0  0  0
   -2.3791   24.4950   15.5455 C   0  0  0  0  0  0  0  0  0  0  0  0
    1.2451   26.1107   15.6119 C   0  0  0  0  0  0  0  0  0  0  0  0
    1.8221   26.3282   16.9792 O   0  0  0  0  0  0  0  0  0  0  0  0
    2.1506   26.0421   14.4180 O   0  0  0  0  0  0  0  0  0  0  0  0
    2.7405   24.7283   13.9986 C   0  0  0  0  0  0  0  0  0  0  0  0
    2.9691   23.6499   15.0159 C   0  0  0  0  0  0  0  0  0  0  0  0
   -9.1322   25.0679   14.3976 C   0  0  0  0  0  0  0  0  0  0  0  0
  -10.6146   24.9190   14.2242 N   0  0  0  0  0  0  0  0  0  0  0  0
   -5.0744   27.5141   16.5309 C   0  0  0  0  0  0  0  0  0  0  0  0
   -5.6958   29.2632   18.3487 C   0  0  0  0  0  0  0  0  0  0  0  0
   -5.9753   28.6044   17.0305 C   0  0  0  0  0  0  0  0  0  0  0  0
 35 36  1  0  0  0
 36 34  1  0  0  0
 34  1  1  0  0  0
  1  2  1  0  0  0
  2  3  2  0  0  0
  3  4  1  0  0  0
  4  5  2  0  0  0
  5  6  1  0  0  0
  6  7  2  0  0  0
  5 32  1  0  0  0
 32 33  3  0  0  0
  4  8  1  0  0  0
  3  9  1  0  0  0
  9 10  2  0  0  0
 10 11  1  0  0  0
 11 12  2  0  0  0
 11 13  1  0  0  0
 13 14  1  0  0  0
 14 15  2  0  0  0
 14 16  1  0  0  0
 13 17  1  0  0  0
 17 18  1  0  0  0
 17 19  1  0  0  0
 19 20  1  0  0  0
  2 21  1  0  0  0
 21 22  1  0  0  0
 22 23  1  0  0  0
 23 24  1  0  0  0
 24 25  1  0  0  0
 25 26  1  0  0  0
 24 27  1  0  0  0
 27 28  2  0  0  0
 27 29  1  0  0  0
 29 30  1  0  0  0
 30 31  1  0  0  0
  6  1  1  0  0  0
 16 10  1  0  0  0
 26 21  1  0  0  0
M  END
> <minimizedAffinity>
-2.36899

$$$$



 39 44  0  0  0  0  0  0  0  0999 V2000
   -3.3143   25.8157   11.5191 N   0  0  0  0  0  0  0  0  0  0  0  0
   -4.7186   25.6547   12.0211 C   0  0  0  0  0  0  0  0  0  0  0  0
   -6.0464   26.0080   11.4193 C   0  0  0  0  0  0  0  0  0  0  0  0
   -7.3113   25.7216   12.1727 C   0  0  0  0  0  0  0  0  0  0  0  0
   -7.2486   25.0819   13.5280 C   0  0  0  0  0  0  0  0  0  0  0  0
   -5.9209   24.7286   14.1299 C   0  0  0  0  0  0  0  0  0  0  0  0
   -4.6559   25.0150   13.3764 C   0  0  0  0  0  0  0  0  0  0  0  0
   -3.2128   24.7807   13.7120 C   0  0  0  0  0  0  0  0  0  0  0  0
   -2.3837   25.2755   12.5641 C   0  0  0  0  0  0  0  0  0  0  0  0
   -1.4139   25.3015   12.3986 O   0  0  0  0  0  0  0  0  0  0  0  0
   -1.7697   24.5462   14.0476 C   0  0  0  0  0  0  0  0  0  0  0  0
   -0.5047   24.8326   13.2941 C   0  0  0  0  0  0  0  0  0  0  0  0
   -0.4258   25.2461   12.4045 O   0  0  0  0  0  0  0  0  0  0  0  0
    0.8231   24.4793   13.8960 C   0  0  0  0  0  0  0  0  0  0  0  0
    2.0881   24.7657   13.1425 C   0  0  0  0  0  0  0  0  0  0  0  0
    3.4159   24.4124   13.7444 C   0  0  0  0  0  0  0  0  0  0  0  0
    3.4786   23.7727   15.0997 C   0  0  0  0  0  0  0  0  0  0  0  0
    2.2136   23.4863   15.8532 C   0  0  0  0  0  0  0  0  0  0  0  0
    0.8858   23.8396   15.2513 C   0  0  0  0  0  0  0  0  0  0  0  0
   -0.3792   23.5532   16.0048 O   0  0  0  0  0  0  0  0  0  0  0  0
   -1.7070   23.9065   15.4029 C   0  0  0  0  0  0  0  0  0  0  0  0
   -3.1113   23.7456   15.9049 C   0  0  0  0  0  0  0  0  0  0  0  0
   -3.5142   23.1491   17.2210 O   0  0  0  0  0  0  0  0  0  0  0  0
   -4.0419   24.2858   14.8599 N   0  0  0  0  0  0  0  0  0  0  0  0
   -2.9114   26.4121   10.2030 C   0  0  0  0  0  0  0  0  0  0  0  0
   -0.5531   28.1466    9.5474 C   0  0  0  0  0  0  0  0  0  0  0  0
   -0.5696   26.7095    9.1180 C   0  0  0  0  0  0  0  0  0  0  0  0
    0.5930   26.1396    8.3607 C   0  0  0  0  0  0  0  0  0  0  0  0
    0.5766   24.7025    7.9313 C   0  0  0  0  0  0  0  0  0  0  0  0
   -0.6026   23.8353    8.2591 C   0  0  0  0  0  0  0  0  0  0  0  0
   -1.7653   24.4052    9.0163 C   0  0  0  0  0  0  0  0  0  0  0  0
   -1.7488   25.8423    9.4458 C   0  0  0  0  0  0  0  0  0  0  0  0
   -5.5389   24.3244   14.9475 C   0  0  0  0  0  0  0  0  0  0  0  0
   -6.3084   23.0613   15.1967 C   0  0  0  0  0  0  0  0  0  0  0  0
   -7.3915   23.0351   16.2342 C   0  0  0  0  0  0  0  0  0  0  0  0
   -8.4537   21.9774   16.1830 O   0  0  0  0  0  0  0  0  0  0  0  0
   -9.8073   22.3003   15.6229 C   0  0  0  0  0  0  0  0  0  0  0  0
  -10.9511   22.5942   16.5479 C   0  0  0  0  0  0  0  0  0  0  0  0
  -10.0171   22.3292   14.1380 C   0  0  0  0  0  0  0  0  0  0  0  0
 26 27  1  0  0  0
 27 28  2  0  0  0
 28 29  1  0  0  0
 29 30  2  0  0  0
 30 31  1  0  0  0
 31 32  2  0  0  0
 32 25  1  0  0  0
 25  1  1  0  0  0
  1  2  1  0  0  0
  2  3  2  0  0  0
  3  4  1  0  0  0
  4  5  2  0  0  0
  5  6  1  0  0  0
  6  7  2  0  0  0
  7  8  1  0  0  0
  8  9  1  0  0  0
  9 10  2  0  0  0
  8 11  1  0  0  0
 11 12  1  0  0  0
 12 13  2  0  0  0
 12 14  1  0  0  0
 14 15  2  0  0  0
 15 16  1  0  0  0
 16 17  2  0  0  0
 17 18  1  0  0  0
 18 19  2  0  0  0
 19 20  1  0  0  0
 20 21  1  0  0  0
 21 22  1  0  0  0
 22 23  2  0  0  0
 22 24  1  0  0  0
 24 33  1  0  0  0
 33 34  1  0  0  0
 34 35  1  0  0  0
 35 36  1  0  0  0
 36 37  1  0  0  0
 37 38  1  0  0  0
 37 39  1  0  0  0
 32 27  1  0  0  0
  9  1  1  0  0  0
  7  2  1  0  0  0
  8 24  1  0  0  0
 21 11  2  0  0  0
 19 14  1  0  0  0
M  END
> <minimizedAffinity>
-6.01360

$$$$



 34 37  0  0  0  0  0  0  0  0999 V2000
   -5.5154   25.2440   15.4358 N   0  0  0  0  0  0  0  0  0  0  0  0
   -6.4859   26.3006   15.8738 C   0  0  0  0  0  0  0  0  0  0  0  0
   -7.8554   26.2163   16.4799 C   0  0  0  0  0  0  0  0  0  0  0  0
   -8.6032   27.4711   16.8207 C   0  0  0  0  0  0  0  0  0  0  0  0
   -7.9816   28.8101   16.5553 C   0  0  0  0  0  0  0  0  0  0  0  0
   -6.6122   28.8944   15.9492 C   0  0  0  0  0  0  0  0  0  0  0  0
   -5.8643   27.6396   15.6084 C   0  0  0  0  0  0  0  0  0  0  0  0
   -4.5096   27.4107   15.0065 N   0  0  0  0  0  0  0  0  0  0  0  0
   -4.2939   25.9301   14.8998 C   0  0  0  0  0  0  0  0  0  0  0  0
   -3.0715   25.2543   14.3530 C   0  0  0  0  0  0  0  0  0  0  0  0
   -2.9977   24.4569   13.0847 C   0  0  0  0  0  0  0  0  0  0  0  0
   -1.5888   23.9670   12.9265 C   0  0  0  0  0  0  0  0  0  0  0  0
   -1.0683   23.1295   11.7961 O   0  0  0  0  0  0  0  0  0  0  0  0
   -0.7918   24.4617   14.0970 N   0  0  0  0  0  0  0  0  0  0  0  0
   -1.7082   25.2573   14.9787 C   0  0  0  0  0  0  0  0  0  0  0  0
    0.6656   24.2057   14.3428 C   0  0  0  0  0  0  0  0  0  0  0  0
    1.7009   25.0498   13.6603 C   0  0  0  0  0  0  0  0  0  0  0  0
    3.1582   24.7938   13.9061 C   0  0  0  0  0  0  0  0  0  0  0  0
    3.5803   23.6937   14.8343 C   0  0  0  0  0  0  0  0  0  0  0  0
    2.5451   22.8496   15.5167 C   0  0  0  0  0  0  0  0  0  0  0  0
    1.0877   23.1056   15.2710 C   0  0  0  0  0  0  0  0  0  0  0  0
    0.0525   22.2615   15.9534 Br  0  0  0  0  0  0  0  0  0  0  0  0
   -5.7289   23.7616   15.5192 C   0  0  0  0  0  0  0  0  0  0  0  0
   -7.9170   23.1339   14.2671 N   0  0  0  0  0  0  0  0  0  0  0  0
   -7.1212   23.2042   15.5367 C   0  0  0  0  0  0  0  0  0  0  0  0
   -7.7180   22.7169   16.8238 O   0  0  0  0  0  0  0  0  0  0  0  0
   -9.3095   22.5764   14.2847 C   0  0  0  0  0  0  0  0  0  0  0  0
  -10.8411   24.5647   14.9562 C   0  0  0  0  0  0  0  0  0  0  0  0
  -10.3436   23.1699   15.1949 C   0  0  0  0  0  0  0  0  0  0  0  0
  -10.8801   22.3685   16.3438 C   0  0  0  0  0  0  0  0  0  0  0  0
   -7.3204   23.6211   12.9800 C   0  0  0  0  0  0  0  0  0  0  0  0
   -7.3041   25.0884   12.6690 C   0  0  0  0  0  0  0  0  0  0  0  0
   -6.1790   25.6727   11.8674 C   0  0  0  0  0  0  0  0  0  0  0  0
   -8.4128   25.9715   13.1597 C   0  0  0  0  0  0  0  0  0  0  0  0
 28 29  1  0  0  0
 29 30  1  0  0  0
 29 27  1  0  0  0
 27 24  1  0  0  0
 24 31  1  0  0  0
 31 32  1  0  0  0
 32 33  1  0  0  0
 32 34  1  0  0  0
 24 25  1  0  0  0
 25 26  2  0  0  0
 25 23  1  0  0  0
 23  1  1  0  0  0
  1  2  1  0  0  0
  2  3  2  0  0  0
  3  4  1  0  0  0
  4  5  2  0  0  0
  5  6  1  0  0  0
  6  7  2  0  0  0
  7  8  1  0  0  0
  8  9  2  0  0  0
 10  9  1  0  0  0
 10 11  1  0  0  0
 11 12  1  0  0  0
 12 13  2  0  0  0
 12 14  1  0  0  0
 14 15  1  0  0  0
 14 16  1  0  0  0
 16 17  2  0  0  0
 17 18  1  0  0  0
 18 19  2  0  0  0
 19 20  1  0  0  0
 20 21  2  0  0  0
 21 22  1  0  0  0
  9  1  1  0  0  0
  7  2  1  0  0  0
 15 10  1  0  0  0
 21 16  1  0  0  0
M  END
> <minimizedAffinity>
-9.22978

$$$$



 34 37  0  0  0  0  0  0  0  0999 V2000
   -5.5154   25.2440   15.4358 N   0  0  0  0  0  0  0  0  0  0  0  0
   -6.4859   26.3006   15.8738 C   0  0  0  0  0  0  0  0  0  0  0  0
   -7.8554   26.2163   16.4799 C   0  0  0  0  0  0  0  0  0  0  0  0
   -8.6032   27.4711   16.8207 C   0  0  0  0  0  0  0  0  0  0  0  0
   -7.9816   28.8101   16.5553 C   0  0  0  0  0  0  0  0  0  0  0  0
   -6.6122   28.8944   15.9492 C   0  0  0  0  0  0  0  0  0  0  0  0
   -5.8643   27.6396   15.6084 C   0  0  0  0  0  0  0  0  0  0  0  0
   -4.5096   27.4107   15.0065 N   0  0  0  0  0  0  0  0  0  0  0  0
   -4.2939   25.9301   14.8998 C   0  0  0  0  0  0  0  0  0  0  0  0
   -3.0715   25.2543   14.3530 C   0  0  0  0  0  0  0  0  0  0  0  0
   -2.9977   24.4569   13.0847 C   0  0  0  0  0  0  0  0  0  0  0  0
   -1.5888   23.9670   12.9265 C   0  0  0  0  0  0  0  0  0  0  0  0
   -1.0683   23.1295   11.7961 O   0  0  0  0  0  0  0  0  0  0  0  0
   -0.7918   24.4617   14.0970 N   0  0  0  0  0  0  0  0  0  0  0  0
   -1.7082   25.2573   14.9787 C   0  0  0  0  0  0  0  0  0  0  0  0
    0.6656   24.2057   14.3428 C   0  0  0  0  0  0  0  0  0  0  0  0
    1.7009   25.0498   13.6603 C   0  0  0  0  0  0  0  0  0  0  0  0
    3.1582   24.7938   13.9061 C   0  0  0  0  0  0  0  0  0  0  0  0
    3.5803   23.6937   14.8343 C   0  0  0  0  0  0  0  0  0  0  0  0
    2.5451   22.8496   15.5167 C   0  0  0  0  0  0  0  0  0  0  0  0
    1.0877   23.1056   15.2710 C   0  0  0  0  0  0  0  0  0  0  0  0
    0.0525   22.2615   15.9534 Br  0  0  0  0  0  0  0  0  0  0  0  0
   -5.7289   23.7616   15.5192 C   0  0  0  0  0  0  0  0  0  0  0  0
   -7.9170   23.1339   14.2671 N   0  0  0  0  0  0  0  0  0  0  0  0
   -7.1212   23.2042   15.5367 C   0  0  0  0  0  0  0  0  0  0  0  0
   -7.7180   22.7169   16.8238 O   0  0  0  0  0  0  0  0  0  0  0  0
   -9.3095   22.5764   14.2847 C   0  0  0  0  0  0  0  0  0  0  0  0
  -10.8411   24.5647   14.9562 C   0  0  0  0  0  0  0  0  0  0  0  0
  -10.3436   23.1699   15.1949 C   0  0  0  0  0  0  0  0  0  0  0  0
  -10.8801   22.3685   16.3438 C   0  0  0  0  0  0  0  0  0  0  0  0
   -7.3204   23.6211   12.9800 C   0  0  0  0  0  0  0  0  0  0  0  0
   -7.3041   25.0884   12.6690 C   0  0  0  0  0  0  0  0  0  0  0  0
   -6.1790   25.6727   11.8674 C   0  0  0  0  0  0  0  0  0  0  0  0
   -8.4128   25.9715   13.1597 C   0  0  0  0  0  0  0  0  0  0  0  0
 28 29  1  0  0  0
 29 30  1  0  0  0
 29 27  1  0  0  0
 27 24  1  0  0  0
 24 31  1  0  0  0
 31 32  1  0  0  0
 32 33  1  0  0  0
 32 34  1  0  0  0
 24 25  1  0  0  0
 25 26  2  0  0  0
 25 23  1  0  0  0
 23  1  1  0  0  0
  1  2  1  0  0  0
  2  3  2  0  0  0
  3  4  1  0  0  0
  4  5  2  0  0  0
  5  6  1  0  0  0
  6  7  2  0  0  0
  7  8  1  0  0  0
  8  9  2  0  0  0
 10  9  1  0  0  0
 10 11  1  0  0  0
 11 12  1  0  0  0
 12 13  2  0  0  0
 12 14  1  0  0  0
 14 15  1  0  0  0
 14 16  1  0  0  0
 16 17  2  0  0  0
 17 18  1  0  0  0
 18 19  2  0  0  0
 19 20  1  0  0  0
 20 21  2  0  0  0
 21 22  1  0  0  0
  9  1  1  0  0  0
  7  2  1  0  0  0
 15 10  1  0  0  0
 21 16  1  0  0  0
M  END
> <minimizedAffinity>
-9.22978

$$$$



 39 44  0  0  0  0  0  0  0  0999 V2000
   -3.1121   24.7942   13.1380 C   0  0  0  0  0  0  0  0  0  0  0  0
   -3.0992   26.7946    9.7104 C   0  0  0  0  0  0  0  0  0  0  0  0
   -2.2950   25.8698    8.8455 C   0  0  0  0  0  0  0  0  0  0  0  0
   -1.7632   24.5865    9.4115 C   0  0  0  0  0  0  0  0  0  0  0  0
   -2.0356   24.2280   10.8423 C   0  0  0  0  0  0  0  0  0  0  0  0
   -2.8397   25.1527   11.7072 C   0  0  0  0  0  0  0  0  0  0  0  0
   -3.3715   26.4360   11.1413 C   0  0  0  0  0  0  0  0  0  0  0  0
   -1.5037   22.9446   11.4082 F   0  0  0  0  0  0  0  0  0  0  0  0
   -4.4828   24.3469   13.5513 N   0  0  0  0  0  0  0  0  0  0  0  0
   -5.6708   24.6870   12.7011 C   0  0  0  0  0  0  0  0  0  0  0  0
   -7.0417   24.2397   13.1144 C   0  0  0  0  0  0  0  0  0  0  0  0
   -7.2245   23.4524   14.3780 N   0  0  0  0  0  0  0  0  0  0  0  0
   -6.0365   23.1123   15.2282 C   0  0  0  0  0  0  0  0  0  0  0  0
   -4.6656   23.5596   14.8149 C   0  0  0  0  0  0  0  0  0  0  0  0
   -8.5953   23.0051   14.7913 C   0  0  0  0  0  0  0  0  0  0  0  0
   -8.9995   23.0624   16.2347 C   0  0  0  0  0  0  0  0  0  0  0  0
  -10.3702   22.6151   16.6480 C   0  0  0  0  0  0  0  0  0  0  0  0
  -11.3369   22.1105   15.6179 C   0  0  0  0  0  0  0  0  0  0  0  0
  -10.9327   22.0532   14.1745 C   0  0  0  0  0  0  0  0  0  0  0  0
   -9.5619   22.5005   13.7612 C   0  0  0  0  0  0  0  0  0  0  0  0
  -11.8994   21.5486   13.1445 C   0  0  0  0  0  0  0  0  0  0  0  0
  -12.8660   21.0441   12.1144 F   0  0  0  0  0  0  0  0  0  0  0  0
  -12.8904   22.5941   13.5624 F   0  0  0  0  0  0  0  0  0  0  0  0
  -10.9083   20.5031   12.7266 F   0  0  0  0  0  0  0  0  0  0  0  0
   -2.0136   24.8830   14.1556 C   0  0  0  0  0  0  0  0  0  0  0  0
   -1.0949   23.7687   14.5608 N   0  0  0  0  0  0  0  0  0  0  0  0
   -0.1544   24.2988   15.6022 N   0  0  0  0  0  0  0  0  0  0  0  0
   -0.4919   25.7408   15.8406 N   0  0  0  0  0  0  0  0  0  0  0  0
   -1.6409   26.1019   14.9465 N   0  0  0  0  0  0  0  0  0  0  0  0
   -2.3014   27.4458   14.8588 C   0  0  0  0  0  0  0  0  0  0  0  0
   -3.7967   27.5437   14.7916 C   0  0  0  0  0  0  0  0  0  0  0  0
   -4.4490   28.3071   13.6774 C   0  0  0  0  0  0  0  0  0  0  0  0
   -5.9443   28.4049   13.6102 C   0  0  0  0  0  0  0  0  0  0  0  0
   -6.7873   27.7393   14.6572 C   0  0  0  0  0  0  0  0  0  0  0  0
   -6.1350   26.9759   15.7715 C   0  0  0  0  0  0  0  0  0  0  0  0
   -4.6397   26.8780   15.8387 C   0  0  0  0  0  0  0  0  0  0  0  0
   -7.2173   26.4282   16.6539 O   0  0  0  0  0  0  0  0  0  0  0  0
   -8.5385   26.8532   16.0849 C   0  0  0  0  0  0  0  0  0  0  0  0
   -8.2728   27.6635   14.8509 O   0  0  0  0  0  0  0  0  0  0  0  0
  2  3  2  0  0  0
  3  4  1  0  0  0
  4  5  2  0  0  0
  5  6  1  0  0  0
  6  7  2  0  0  0
  6  1  1  0  0  0
  1 25  1  0  0  0
 25 26  2  0  0  0
 26 27  1  0  0  0
 27 28  2  0  0  0
 28 29  1  0  0  0
 29 30  1  0  0  0
 30 31  1  0  0  0
 31 32  2  0  0  0
 32 33  1  0  0  0
 33 34  2  0  0  0
 34 35  1  0  0  0
 35 36  2  0  0  0
 35 37  1  0  0  0
 37 38  1  0  0  0
 38 39  1  0  0  0
  1  9  1  0  0  0
  9 10  1  0  0  0
 10 11  1  0  0  0
 11 12  1  0  0  0
 12 13  1  0  0  0
 13 14  1  0  0  0
 12 15  1  0  0  0
 15 16  2  0  0  0
 16 17  1  0  0  0
 17 18  2  0  0  0
 18 19  1  0  0  0
 19 20  2  0  0  0
 19 21  1  0  0  0
 21 22  1  0  0  0
 21 23  1  0  0  0
 21 24  1  0  0  0
  5  8  1  0  0  0
  7  2  1  0  0  0
 29 25  1  0  0  0
 36 31  1  0  0  0
 39 34  1  0  0  0
 14  9  1  0  0  0
 20 15  1  0  0  0
M  END
> <minimizedAffinity>
-10.54387

$$$$



 36 40  0  0  0  0  0  0  0  0999 V2000
   -4.3419   26.8263   14.5362 C   0  0  0  0  0  0  0  0  0  0  0  0
   -5.2873   27.5459   15.4518 C   0  0  0  0  0  0  0  0  0  0  0  0
   -4.7629   28.2529   16.6664 C   0  0  0  0  0  0  0  0  0  0  0  0
   -5.7083   28.9725   17.5820 C   0  0  0  0  0  0  0  0  0  0  0  0
   -7.1782   28.9850   17.2830 C   0  0  0  0  0  0  0  0  0  0  0  0
   -7.7026   28.2780   16.0685 C   0  0  0  0  0  0  0  0  0  0  0  0
   -6.7572   27.5585   15.1529 C   0  0  0  0  0  0  0  0  0  0  0  0
   -7.2816   26.8514   13.9384 C   0  0  0  0  0  0  0  0  0  0  0  0
   -8.7515   26.8640   13.6395 O   0  0  0  0  0  0  0  0  0  0  0  0
   -6.3362   26.1319   13.0228 N   0  0  0  0  0  0  0  0  0  0  0  0
   -4.8664   26.1193   13.3217 C   0  0  0  0  0  0  0  0  0  0  0  0
   -3.9209   25.3997   12.4060 C   0  0  0  0  0  0  0  0  0  0  0  0
   -3.3149   24.0492   12.6488 C   0  0  0  0  0  0  0  0  0  0  0  0
   -2.4349   23.7191   11.4797 N   0  0  0  0  0  0  0  0  0  0  0  0
   -2.4973   24.8656   10.5143 C   0  0  0  0  0  0  0  0  0  0  0  0
   -3.4156   25.9042   11.0868 C   0  0  0  0  0  0  0  0  0  0  0  0
   -3.6732   27.1752   10.3330 C   0  0  0  0  0  0  0  0  0  0  0  0
   -3.0123   27.4075    9.0066 C   0  0  0  0  0  0  0  0  0  0  0  0
   -2.0939   26.3688    8.4341 C   0  0  0  0  0  0  0  0  0  0  0  0
   -1.8364   25.0979    9.1880 C   0  0  0  0  0  0  0  0  0  0  0  0
   -1.6335   22.4631   11.3063 C   0  0  0  0  0  0  0  0  0  0  0  0
   -1.9919   25.7627   14.2264 N   0  0  0  0  0  0  0  0  0  0  0  0
   -2.8720   26.8137   14.8351 C   0  0  0  0  0  0  0  0  0  0  0  0
   -2.2824   27.8523   15.7427 O   0  0  0  0  0  0  0  0  0  0  0  0
    3.8876   25.7124   15.4220 C   0  0  0  0  0  0  0  0  0  0  0  0
    2.4177   25.7250   15.1231 C   0  0  0  0  0  0  0  0  0  0  0  0
    1.4481   25.1328   16.1025 C   0  0  0  0  0  0  0  0  0  0  0  0
   -0.0218   25.1453   15.8036 C   0  0  0  0  0  0  0  0  0  0  0  0
   -0.5220   25.7501   14.5253 C   0  0  0  0  0  0  0  0  0  0  0  0
    0.4476   26.3423   13.5459 C   0  0  0  0  0  0  0  0  0  0  0  0
    1.9174   26.3298   13.8448 C   0  0  0  0  0  0  0  0  0  0  0  0
   -0.0527   26.9471   12.2676 Br  0  0  0  0  0  0  0  0  0  0  0  0
   -6.8606   25.4248   11.8082 C   0  0  0  0  0  0  0  0  0  0  0  0
   -7.1882   23.9626   11.8746 C   0  0  0  0  0  0  0  0  0  0  0  0
   -7.1168   23.2368   13.1853 O   0  0  0  0  0  0  0  0  0  0  0  0
   -8.3187   23.1868   14.0814 C   0  0  0  0  0  0  0  0  0  0  0  0
 25 26  1  0  0  0
 26 27  2  0  0  0
 27 28  1  0  0  0
 28 29  2  0  0  0
 29 30  1  0  0  0
 30 31  2  0  0  0
 30 32  1  0  0  0
 29 22  1  0  0  0
 22 23  1  0  0  0
 23 24  2  0  0  0
  1 23  1  0  0  0
  1  2  1  0  0  0
  2  3  2  0  0  0
  3  4  1  0  0  0
  4  5  2  0  0  0
  5  6  1  0  0  0
  6  7  2  0  0  0
  7  8  1  0  0  0
  8  9  2  0  0  0
  8 10  1  0  0  0
 10 11  1  0  0  0
 11 12  1  0  0  0
 12 13  2  0  0  0
 13 14  1  0  0  0
 14 15  1  0  0  0
 15 16  2  0  0  0
 16 17  1  0  0  0
 17 18  2  0  0  0
 18 19  1  0  0  0
 19 20  2  0  0  0
 14 21  1  0  0  0
 10 33  1  0  0  0
 33 34  1  0  0  0
 34 35  1  0  0  0
 35 36  1  0  0  0
 31 26  1  0  0  0
 11  1  1  0  0  0
  7  2  1  0  0  0
 16 12  1  0  0  0
 20 15  1  0  0  0
M  END
> <minimizedAffinity>
-3.29858

$$$$



 28 30  0  0  0  0  0  0  0  0999 V2000
   -7.7991   23.5227   15.0663 C   0  0  0  0  0  0  0  0  0  0  0  0
   -7.7182   23.2381   13.5958 N   0  0  0  0  0  0  0  0  0  0  0  0
   -7.4525   24.5330   12.8870 N   0  0  0  0  0  0  0  0  0  0  0  0
   -7.3691   25.6180   13.9194 C   0  0  0  0  0  0  0  0  0  0  0  0
   -7.5834   24.9936   15.2663 N   0  0  0  0  0  0  0  0  0  0  0  0
   -7.5820   25.7136   16.5822 C   0  0  0  0  0  0  0  0  0  0  0  0
   -8.0514   22.5136   16.1471 C   0  0  0  0  0  0  0  0  0  0  0  0
   -9.3256   21.7221   16.1515 O   0  0  0  0  0  0  0  0  0  0  0  0
  -12.8169   21.6767   12.3033 C   0  0  0  0  0  0  0  0  0  0  0  0
  -12.3055   22.2614   13.5865 C   0  0  0  0  0  0  0  0  0  0  0  0
  -11.0713   21.6994   14.2274 C   0  0  0  0  0  0  0  0  0  0  0  0
  -10.5599   22.2842   15.5106 C   0  0  0  0  0  0  0  0  0  0  0  0
  -11.2827   23.4308   16.1529 C   0  0  0  0  0  0  0  0  0  0  0  0
  -12.5170   23.9928   15.5120 C   0  0  0  0  0  0  0  0  0  0  0  0
  -13.0283   23.4081   14.2288 C   0  0  0  0  0  0  0  0  0  0  0  0
  -14.2627   23.9701   13.5878 Cl  0  0  0  0  0  0  0  0  0  0  0  0
   -7.1160   27.0721   13.6519 S   0  0  0  0  0  0  0  0  0  0  0  0
   -5.7725   27.6673   13.9529 C   0  0  0  0  0  0  0  0  0  0  0  0
   -4.5804   27.2843   13.1270 C   0  0  0  0  0  0  0  0  0  0  0  0
   -3.1960   27.5395   13.6447 O   0  0  0  0  0  0  0  0  0  0  0  0
   -4.7728   26.6462   11.7832 N   0  0  0  0  0  0  0  0  0  0  0  0
   -3.5806   26.2632   10.9572 C   0  0  0  0  0  0  0  0  0  0  0  0
   -2.7005   25.1288   11.3914 C   0  0  0  0  0  0  0  0  0  0  0  0
   -1.5085   24.7458   10.5654 C   0  0  0  0  0  0  0  0  0  0  0  0
   -1.1965   25.4973    9.3052 C   0  0  0  0  0  0  0  0  0  0  0  0
   -2.0766   26.6317    8.8710 C   0  0  0  0  0  0  0  0  0  0  0  0
   -3.2688   27.0147    9.6970 C   0  0  0  0  0  0  0  0  0  0  0  0
   -0.0044   25.1144    8.4792 I   0  0  0  0  0  0  0  0  0  0  0  0
  9 10  1  0  0  0
 10 11  2  0  0  0
 11 12  1  0  0  0
 12 13  2  0  0  0
 13 14  1  0  0  0
 14 15  2  0  0  0
 15 16  1  0  0  0
 12  8  1  0  0  0
  8  7  1  0  0  0
  7  1  1  0  0  0
  1  2  2  0  0  0
  2  3  1  0  0  0
  3  4  2  0  0  0
  4  5  1  0  0  0
  5  6  1  0  0  0
  4 17  1  0  0  0
 17 18  1  0  0  0
 18 19  1  0  0  0
 19 20  2  0  0  0
 19 21  1  0  0  0
 21 22  1  0  0  0
 22 23  2  0  0  0
 23 24  1  0  0  0
 24 25  2  0  0  0
 25 26  1  0  0  0
 26 27  2  0  0  0
 25 28  1  0  0  0
 15 10  1  0  0  0
  5  1  1  0  0  0
 27 22  1  0  0  0
M  END
> <minimizedAffinity>
-8.89991

$$$$



 35 39  0  0  0  0  0  0  0  0999 V2000
   -3.9022   22.2592   12.1648 H   0  0  0  0  0  0  0  0  0  0  0  0
   -4.5842   22.5489   13.4690 N   0  0  0  0  0  0  0  0  0  0  0  0
   -4.7958   23.9682   13.9057 C   0  0  0  0  0  0  0  0  0  0  0  0
   -4.3254   25.0979   13.0382 N   0  0  0  0  0  0  0  0  0  0  0  0
   -4.8403   26.5064   13.0688 C   0  0  0  0  0  0  0  0  0  0  0  0
   -4.0907   27.2964   12.0373 C   0  0  0  0  0  0  0  0  0  0  0  0
   -3.1124   26.3762   11.3693 C   0  0  0  0  0  0  0  0  0  0  0  0
   -3.2575   25.0174   11.9880 N   0  0  0  0  0  0  0  0  0  0  0  0
   -5.9161   27.0325   13.9721 C   0  0  0  0  0  0  0  0  0  0  0  0
   -7.3547   26.9415   13.5574 C   0  0  0  0  0  0  0  0  0  0  0  0
   -8.4303   27.4676   14.4608 C   0  0  0  0  0  0  0  0  0  0  0  0
   -8.0674   28.0848   15.7788 C   0  0  0  0  0  0  0  0  0  0  0  0
   -6.6288   28.1759   16.1936 C   0  0  0  0  0  0  0  0  0  0  0  0
   -5.5531   27.6497   15.2902 C   0  0  0  0  0  0  0  0  0  0  0  0
   -9.1431   28.6110   16.6822 Br  0  0  0  0  0  0  0  0  0  0  0  0
   -2.1569   26.7493   10.2749 C   0  0  0  0  0  0  0  0  0  0  0  0
   -2.4555   26.7468    8.8050 C   0  0  0  0  0  0  0  0  0  0  0  0
   -1.2181   27.1863    8.0799 C   0  0  0  0  0  0  0  0  0  0  0  0
   -0.1548   27.4603    9.1017 C   0  0  0  0  0  0  0  0  0  0  0  0
   -0.7350   27.1902   10.4584 S   0  0  0  0  0  0  0  0  0  0  0  0
   -5.4778   24.2578   15.2099 S   0  0  0  0  0  0  0  0  0  0  0  0
   -6.8853   23.7929   15.4397 C   0  0  0  0  0  0  0  0  0  0  0  0
   -7.5043   23.4795   16.7695 C   0  0  0  0  0  0  0  0  0  0  0  0
   -8.9225   23.0527   16.5316 C   0  0  0  0  0  0  0  0  0  0  0  0
   -9.9099   22.6474   17.5857 O   0  0  0  0  0  0  0  0  0  0  0  0
   -9.1800   23.1023   15.0547 N   0  0  0  0  0  0  0  0  0  0  0  0
   -7.9209   23.5598   14.3799 C   0  0  0  0  0  0  0  0  0  0  0  0
   -7.7308   23.7506   12.9042 O   0  0  0  0  0  0  0  0  0  0  0  0
  -10.4700   22.7554   14.3725 C   0  0  0  0  0  0  0  0  0  0  0  0
  -10.5485   21.5478   13.4860 C   0  0  0  0  0  0  0  0  0  0  0  0
  -11.8385   21.2009   12.8037 C   0  0  0  0  0  0  0  0  0  0  0  0
  -13.0501   22.0615   13.0079 C   0  0  0  0  0  0  0  0  0  0  0  0
  -12.9716   23.2690   13.8944 C   0  0  0  0  0  0  0  0  0  0  0  0
  -11.6815   23.6159   14.5767 C   0  0  0  0  0  0  0  0  0  0  0  0
  -14.1831   24.1295   14.0986 C   0  0  0  0  0  0  0  0  0  0  0  0
  1  2  1  0  0  0
  2  3  2  0  0  0
  3  4  1  0  0  0
  4  5  1  0  0  0
  5  6  1  0  0  0
  6  7  1  0  0  0
  7  8  2  0  0  0
  7 16  1  0  0  0
 16 17  2  0  0  0
 17 18  1  0  0  0
 18 19  2  0  0  0
 19 20  1  0  0  0
  5  9  1  0  0  0
  9 10  2  0  0  0
 10 11  1  0  0  0
 11 12  2  0  0  0
 12 13  1  0  0  0
 13 14  2  0  0  0
 12 15  1  0  0  0
  3 21  1  0  0  0
 22 21  1  0  0  0
 22 23  1  0  0  0
 23 24  1  0  0  0
 24 25  2  0  0  0
 24 26  1  0  0  0
 26 27  1  0  0  0
 27 28  2  0  0  0
 26 29  1  0  0  0
 29 30  2  0  0  0
 30 31  1  0  0  0
 31 32  2  0  0  0
 32 33  1  0  0  0
 33 34  2  0  0  0
 33 35  1  0  0  0
  8  4  1  0  0  0
 20 16  1  0  0  0
 14  9  1  0  0  0
 27 22  1  0  0  0
 34 29  1  0  0  0
M  END
> <minimizedAffinity>
-11.34029

$$$$



 35 38  0  0  0  0  0  0  0  0999 V2000
   -1.9927   25.0940   14.1547 C   0  0  0  0  0  0  0  0  0  0  0  0
   -0.5346   24.9032   14.4511 C   0  0  0  0  0  0  0  0  0  0  0  0
   -0.3720   23.5854   15.1491 N   0  0  0  0  0  0  0  0  0  0  0  0
   -1.7296   22.9618   15.2841 N   0  0  0  0  0  0  0  0  0  0  0  0
   -2.7312   23.8941   14.6695 C   0  0  0  0  0  0  0  0  0  0  0  0
   -6.2073   28.3034   15.2433 N   0  0  0  0  0  0  0  0  0  0  0  0
   -5.6185   28.8108   13.9604 C   0  0  0  0  0  0  0  0  0  0  0  0
   -4.4177   28.1353   13.3675 C   0  0  0  0  0  0  0  0  0  0  0  0
   -3.8056   26.9523   14.0575 N   0  0  0  0  0  0  0  0  0  0  0  0
   -4.3944   26.4450   15.3405 C   0  0  0  0  0  0  0  0  0  0  0  0
   -5.5953   27.1206   15.9334 C   0  0  0  0  0  0  0  0  0  0  0  0
   -2.6047   26.2768   13.4646 C   0  0  0  0  0  0  0  0  0  0  0  0
   -2.0159   26.7842   12.1817 O   0  0  0  0  0  0  0  0  0  0  0  0
   -7.4083   28.9790   15.8362 C   0  0  0  0  0  0  0  0  0  0  0  0
   -8.4445   28.1692   16.5576 C   0  0  0  0  0  0  0  0  0  0  0  0
   -9.3547   26.9991   14.4239 C   0  0  0  0  0  0  0  0  0  0  0  0
   -9.0560   26.9713   15.8937 C   0  0  0  0  0  0  0  0  0  0  0  0
   -4.2113   23.6666   14.5847 S   0  0  0  0  0  0  0  0  0  0  0  0
   -4.1244   23.6594   13.0873 O   0  0  0  0  0  0  0  0  0  0  0  0
   -4.2984   23.6736   16.0821 O   0  0  0  0  0  0  0  0  0  0  0  0
   -5.6915   23.4390   14.4997 N   0  0  0  0  0  0  0  0  0  0  0  0
   -6.4180   23.7008   13.2138 C   0  0  0  0  0  0  0  0  0  0  0  0
   -7.8982   23.4733   13.1287 C   0  0  0  0  0  0  0  0  0  0  0  0
   -8.6520   22.9840   14.3297 N   0  0  0  0  0  0  0  0  0  0  0  0
   -7.9256   22.7222   15.6157 C   0  0  0  0  0  0  0  0  0  0  0  0
   -6.4454   22.9497   15.7007 C   0  0  0  0  0  0  0  0  0  0  0  0
  -10.1322   22.7565   14.2448 C   0  0  0  0  0  0  0  0  0  0  0  0
  -10.6642   21.5211   13.5808 C   0  0  0  0  0  0  0  0  0  0  0  0
  -12.1444   21.2935   13.4958 C   0  0  0  0  0  0  0  0  0  0  0  0
  -13.0926   22.3013   14.0748 C   0  0  0  0  0  0  0  0  0  0  0  0
  -12.5606   23.5367   14.7387 C   0  0  0  0  0  0  0  0  0  0  0  0
  -11.0804   23.7643   14.8237 C   0  0  0  0  0  0  0  0  0  0  0  0
  -13.5088   24.5445   15.3177 Cl  0  0  0  0  0  0  0  0  0  0  0  0
    0.9210   22.9950   15.6280 C   0  0  0  0  0  0  0  0  0  0  0  0
    2.1464   23.8542   15.7277 C   0  0  0  0  0  0  0  0  0  0  0  0
 16 17  1  0  0  0
 17 15  1  0  0  0
 15 14  1  0  0  0
 14  6  1  0  0  0
  6  7  1  0  0  0
  7  8  1  0  0  0
  8  9  1  0  0  0
  9 10  1  0  0  0
 10 11  1  0  0  0
  9 12  1  0  0  0
 12 13  2  0  0  0
 12  1  1  0  0  0
  1  2  2  0  0  0
  2  3  1  0  0  0
  3  4  1  0  0  0
  4  5  2  0  0  0
  5 18  1  0  0  0
 18 19  2  0  0  0
 18 20  2  0  0  0
 18 21  1  0  0  0
 21 22  1  0  0  0
 22 23  1  0  0  0
 23 24  1  0  0  0
 24 25  1  0  0  0
 25 26  1  0  0  0
 24 27  1  0  0  0
 27 28  2  0  0  0
 28 29  1  0  0  0
 29 30  2  0  0  0
 30 31  1  0  0  0
 31 32  2  0  0  0
 31 33  1  0  0  0
  3 34  1  0  0  0
 34 35  1  0  0  0
 11  6  1  0  0  0
  5  1  1  0  0  0
 26 21  1  0  0  0
 32 27  1  0  0  0
M  END
> <minimizedAffinity>
-7.62801

$$$$



 31 34  0  0  0  0  0  0  0  0999 V2000
   -6.4282   26.5169   14.9644 C   0  0  0  0  0  0  0  0  0  0  0  0
   -7.6210   25.6231   14.7950 N   0  0  0  0  0  0  0  0  0  0  0  0
   -7.4380   24.2074   14.3345 C   0  0  0  0  0  0  0  0  0  0  0  0
   -8.6307   23.3138   14.1651 C   0  0  0  0  0  0  0  0  0  0  0  0
  -10.0065   23.8358   14.4563 C   0  0  0  0  0  0  0  0  0  0  0  0
  -10.1895   25.2516   14.9168 C   0  0  0  0  0  0  0  0  0  0  0  0
   -8.9967   26.1452   15.0862 C   0  0  0  0  0  0  0  0  0  0  0  0
  -11.3822   24.3579   14.7475 C   0  0  0  0  0  0  0  0  0  0  0  0
  -12.7579   24.8800   15.0386 C   0  0  0  0  0  0  0  0  0  0  0  0
  -13.9507   23.9863   14.8692 C   0  0  0  0  0  0  0  0  0  0  0  0
  -13.7677   22.5705   14.4087 C   0  0  0  0  0  0  0  0  0  0  0  0
  -12.3920   22.0485   14.1175 C   0  0  0  0  0  0  0  0  0  0  0  0
  -12.2090   20.6326   13.6569 O   0  0  0  0  0  0  0  0  0  0  0  0
  -11.1992   22.9421   14.2869 N   0  0  0  0  0  0  0  0  0  0  0  0
   -9.8235   22.4200   13.9957 C   0  0  0  0  0  0  0  0  0  0  0  0
   -6.5868   27.8673   15.5979 C   0  0  0  0  0  0  0  0  0  0  0  0
   -6.7454   29.2177   16.2313 Cl  0  0  0  0  0  0  0  0  0  0  0  0
   -6.4981   28.5117   14.2463 Cl  0  0  0  0  0  0  0  0  0  0  0  0
   -6.6755   27.2228   16.9494 Cl  0  0  0  0  0  0  0  0  0  0  0  0
   -4.8067   25.8849   13.0354 C   0  0  0  0  0  0  0  0  0  0  0  0
   -5.8879   26.1665   12.0344 O   0  0  0  0  0  0  0  0  0  0  0  0
   -5.0769   26.0602   14.5004 N   0  0  0  0  0  0  0  0  0  0  0  0
   -1.1374   23.6620   12.0859 C   0  0  0  0  0  0  0  0  0  0  0  0
   -2.4210   24.3492   12.4466 C   0  0  0  0  0  0  0  0  0  0  0  0
   -2.1493   25.7162   11.8923 C   0  0  0  0  0  0  0  0  0  0  0  0
   -3.4554   25.4282   12.5713 C   0  0  0  0  0  0  0  0  0  0  0  0
   -3.1385   23.2207   13.1263 C   0  0  0  0  0  0  0  0  0  0  0  0
   -1.2384   26.6718   11.1802 C   0  0  0  0  0  0  0  0  0  0  0  0
   -1.6601   27.2782    9.8746 C   0  0  0  0  0  0  0  0  0  0  0  0
   -0.7492   28.2337    9.1625 Cl  0  0  0  0  0  0  0  0  0  0  0  0
   -2.9928   26.9291    9.2812 Cl  0  0  0  0  0  0  0  0  0  0  0  0
 23 24  1  0  0  0
 24 25  1  0  0  0
 25 26  1  0  0  0
 26 20  1  0  0  0
 20 21  2  0  0  0
 20 22  1  0  0  0
  1 22  1  0  0  0
  1 16  1  0  0  0
 16 17  1  0  0  0
 16 18  1  0  0  0
 16 19  1  0  0  0
  1  2  1  0  0  0
  2  3  1  0  0  0
  4  3  1  0  0  0
  4  5  1  0  0  0
  5  6  1  0  0  0
  6  7  1  0  0  0
  6  8  1  0  0  0
  8  9  2  0  0  0
  9 10  1  0  0  0
 10 11  2  0  0  0
 11 12  1  0  0  0
 12 13  2  0  0  0
 12 14  1  0  0  0
 14 15  1  0  0  0
 25 28  1  0  0  0
 28 29  2  0  0  0
 29 30  1  0  0  0
 29 31  1  0  0  0
 24 27  1  0  0  0
 26 24  1  0  0  0
  7  2  1  0  0  0
 15  4  1  0  0  0
 14  8  1  0  0  0
M  END
> <minimizedAffinity>
-8.37495

$$$$



 38 43  0  0  0  0  0  0  0  0999 V2000
   -1.3193   24.6616   12.1439 C   0  0  0  0  0  0  0  0  0  0  0  0
   -2.4530   23.7331   11.8237 C   0  0  0  0  0  0  0  0  0  0  0  0
   -5.8865   23.2988   14.6999 N   0  0  0  0  0  0  0  0  0  0  0  0
   -4.5119   22.8510   15.0998 C   0  0  0  0  0  0  0  0  0  0  0  0
   -3.3674   22.9958   14.1411 C   0  0  0  0  0  0  0  0  0  0  0  0
   -3.5975   23.5883   12.7824 N   0  0  0  0  0  0  0  0  0  0  0  0
   -4.9721   24.0361   12.3825 C   0  0  0  0  0  0  0  0  0  0  0  0
   -6.1166   23.8913   13.3413 C   0  0  0  0  0  0  0  0  0  0  0  0
   -9.9060   21.9251   13.2144 C   0  0  0  0  0  0  0  0  0  0  0  0
   -8.5662   22.3830   13.7096 C   0  0  0  0  0  0  0  0  0  0  0  0
   -8.3709   22.6961   15.1635 C   0  0  0  0  0  0  0  0  0  0  0  0
   -7.0310   23.1540   15.6586 C   0  0  0  0  0  0  0  0  0  0  0  0
   -6.8357   23.4671   17.1125 C   0  0  0  0  0  0  0  0  0  0  0  0
   -7.9802   23.3223   18.0713 C   0  0  0  0  0  0  0  0  0  0  0  0
   -9.3200   22.8645   17.5761 N   0  0  0  0  0  0  0  0  0  0  0  0
   -9.5153   22.5514   16.1222 C   0  0  0  0  0  0  0  0  0  0  0  0
  -10.8551   22.0935   15.6270 C   0  0  0  0  0  0  0  0  0  0  0  0
  -11.0505   21.7804   14.1731 C   0  0  0  0  0  0  0  0  0  0  0  0
  -12.3904   21.3225   13.6780 Cl  0  0  0  0  0  0  0  0  0  0  0  0
   -1.5872   26.1180   12.3830 C   0  0  0  0  0  0  0  0  0  0  0  0
   -2.7744   26.5382   13.1978 N   0  0  0  0  0  0  0  0  0  0  0  0
   -2.8140   26.2503   14.6694 C   0  0  0  0  0  0  0  0  0  0  0  0
   -4.0013   26.6706   15.4842 C   0  0  0  0  0  0  0  0  0  0  0  0
   -5.1490   27.3786   14.8273 N   0  0  0  0  0  0  0  0  0  0  0  0
   -5.1094   27.6664   13.3557 C   0  0  0  0  0  0  0  0  0  0  0  0
   -3.9222   27.2462   12.5410 C   0  0  0  0  0  0  0  0  0  0  0  0
   -6.3363   27.7988   15.6421 C   0  0  0  0  0  0  0  0  0  0  0  0
   -6.1696   28.7924   16.7534 C   0  0  0  0  0  0  0  0  0  0  0  0
   -7.3568   29.2126   17.5681 C   0  0  0  0  0  0  0  0  0  0  0  0
   -8.7107   28.6393   17.2716 N   0  0  0  0  0  0  0  0  0  0  0  0
   -8.8775   27.6457   16.1603 C   0  0  0  0  0  0  0  0  0  0  0  0
   -7.6903   27.2255   15.3455 C   0  0  0  0  0  0  0  0  0  0  0  0
   -7.8570   26.2319   14.2342 C   0  0  0  0  0  0  0  0  0  0  0  0
   -9.2110   25.6586   13.9377 C   0  0  0  0  0  0  0  0  0  0  0  0
  -10.3983   26.0788   14.7524 C   0  0  0  0  0  0  0  0  0  0  0  0
  -10.2316   27.0724   15.8637 C   0  0  0  0  0  0  0  0  0  0  0  0
  -11.7523   25.5055   14.4559 Cl  0  0  0  0  0  0  0  0  0  0  0  0
   -9.8981   29.0595   18.0863 O   0  0  0  0  0  0  0  0  0  0  0  0
  9 10  2  0  0  0
 10 11  1  0  0  0
 11 12  2  0  0  0
 12 13  1  0  0  0
 13 14  2  0  0  0
 14 15  1  0  0  0
 15 16  2  0  0  0
 16 17  1  0  0  0
 17 18  2  0  0  0
 18 19  1  0  0  0
 12  3  1  0  0  0
  3  4  1  0  0  0
  4  5  1  0  0  0
  5  6  1  0  0  0
  6  7  1  0  0  0
  7  8  1  0  0  0
  6  2  1  0  0  0
  2  1  1  0  0  0
  1 20  1  0  0  0
 20 21  1  0  0  0
 21 22  1  0  0  0
 22 23  1  0  0  0
 23 24  1  0  0  0
 24 25  1  0  0  0
 25 26  1  0  0  0
 24 27  1  0  0  0
 27 28  2  0  0  0
 28 29  1  0  0  0
 29 30  2  0  0  0
 30 31  1  0  0  0
 31 32  2  0  0  0
 32 33  1  0  0  0
 33 34  2  0  0  0
 34 35  1  0  0  0
 35 36  2  0  0  0
 35 37  1  0  0  0
 30 38  1  0  0  0
 18  9  1  0  0  0
 16 11  1  0  0  0
  8  3  1  0  0  0
 26 21  1  0  0  0
 32 27  1  0  0  0
 36 31  1  0  0  0
M  CHG 1  30   1
M  CHG 1  38  -1
M  END
> <minimizedAffinity>
-4.44488

$$$$



 32 34  0  0  0  0  0  0  0  0999 V2000
   -6.2905   23.7953   14.2117 S   0  0  0  0  0  0  0  0  0  0  0  0
   -6.2758   23.4830   15.6788 O   0  0  0  0  0  0  0  0  0  0  0  0
   -6.3053   24.1076   12.7446 O   0  0  0  0  0  0  0  0  0  0  0  0
   -7.7902   23.7629   14.2198 C   0  0  0  0  0  0  0  0  0  0  0  0
   -8.5142   22.4818   13.9284 C   0  0  0  0  0  0  0  0  0  0  0  0
  -10.0137   22.4493   13.9365 C   0  0  0  0  0  0  0  0  0  0  0  0
  -10.7894   23.6977   14.2359 C   0  0  0  0  0  0  0  0  0  0  0  0
  -10.0655   24.9787   14.5273 C   0  0  0  0  0  0  0  0  0  0  0  0
   -8.5658   25.0113   14.5192 C   0  0  0  0  0  0  0  0  0  0  0  0
   -8.1308   26.4103   14.8411 N   0  0  0  0  0  0  0  0  0  0  0  0
   -9.3616   27.2423   15.0481 C   0  0  0  0  0  0  0  0  0  0  0  0
  -10.5573   26.3576   14.8541 C   0  0  0  0  0  0  0  0  0  0  0  0
   -6.7138   26.8925   14.9388 C   0  0  0  0  0  0  0  0  0  0  0  0
   -5.5794   25.9395   14.7046 O   0  0  0  0  0  0  0  0  0  0  0  0
  -10.7378   21.1682   13.6452 Br  0  0  0  0  0  0  0  0  0  0  0  0
   -6.4312   28.3277   15.2707 C   0  0  0  0  0  0  0  0  0  0  0  0
   -6.6504   28.8320   16.6663 C   0  0  0  0  0  0  0  0  0  0  0  0
   -2.5468   23.7943   12.8949 C   0  0  0  0  0  0  0  0  0  0  0  0
   -1.7917   23.8928   14.1873 C   0  0  0  0  0  0  0  0  0  0  0  0
   -2.5363   23.9587   15.4878 C   0  0  0  0  0  0  0  0  0  0  0  0
   -4.0358   23.9262   15.4959 C   0  0  0  0  0  0  0  0  0  0  0  0
   -4.7910   23.8278   14.2035 N   0  0  0  0  0  0  0  0  0  0  0  0
   -4.0464   23.7619   12.9031 C   0  0  0  0  0  0  0  0  0  0  0  0
   -1.5003   24.9881   10.8383 N   0  0  0  0  0  0  0  0  0  0  0  0
   -1.8022   23.7284   11.5944 C   0  0  0  0  0  0  0  0  0  0  0  0
   -1.3594   22.4025   11.0500 O   0  0  0  0  0  0  0  0  0  0  0  0
   -0.7558   24.9222    9.5378 C   0  0  0  0  0  0  0  0  0  0  0  0
    0.3493   26.9298    8.3136 C   0  0  0  0  0  0  0  0  0  0  0  0
    0.4317   25.8094    9.3076 C   0  0  0  0  0  0  0  0  0  0  0  0
   -1.9431   26.3140   11.3826 C   0  0  0  0  0  0  0  0  0  0  0  0
   -3.1905   26.9612   10.8584 C   0  0  0  0  0  0  0  0  0  0  0  0
   -3.4019   27.0940    9.3793 C   0  0  0  0  0  0  0  0  0  0  0  0
 28 29  1  0  0  0
 29 27  1  0  0  0
 27 24  1  0  0  0
 24 30  1  0  0  0
 30 31  1  0  0  0
 31 32  1  0  0  0
 24 25  1  0  0  0
 25 26  2  0  0  0
 18 25  1  0  0  0
 18 19  1  0  0  0
 19 20  1  0  0  0
 20 21  1  0  0  0
 21 22  1  0  0  0
 22 23  1  0  0  0
 22  1  1  0  0  0
  1  2  2  0  0  0
  1  3  2  0  0  0
  1  4  1  0  0  0
  4  5  2  0  0  0
  5  6  1  0  0  0
  6  7  2  0  0  0
  7  8  1  0  0  0
  8  9  2  0  0  0
  9 10  1  0  0  0
 10 11  1  0  0  0
 11 12  1  0  0  0
 10 13  1  0  0  0
 13 14  2  0  0  0
 13 16  1  0  0  0
 16 17  1  0  0  0
  6 15  1  0  0  0
 23 18  1  0  0  0
  9  4  1  0  0  0
 12  8  1  0  0  0
M  END
> <minimizedAffinity>
-7.44987

$$$$



 40 45  0  0  0  0  0  0  0  0999 V2000
   -5.9054   27.4076   16.5547 C   0  0  0  0  0  0  0  0  0  0  0  0
   -6.4264   28.1888   17.7244 C   0  0  0  0  0  0  0  0  0  0  0  0
   -5.5046   29.0827   18.4997 C   0  0  0  0  0  0  0  0  0  0  0  0
   -6.0256   29.8639   19.6695 O   0  0  0  0  0  0  0  0  0  0  0  0
   -4.0617   29.1954   18.1053 O   0  0  0  0  0  0  0  0  0  0  0  0
   -3.5407   28.4142   16.9356 C   0  0  0  0  0  0  0  0  0  0  0  0
   -4.4625   27.5203   16.1603 C   0  0  0  0  0  0  0  0  0  0  0  0
   -3.9415   26.7391   14.9906 C   0  0  0  0  0  0  0  0  0  0  0  0
   -2.4987   26.8518   14.5962 C   0  0  0  0  0  0  0  0  0  0  0  0
   -1.5769   27.7458   15.3715 C   0  0  0  0  0  0  0  0  0  0  0  0
   -2.0979   28.5270   16.5412 C   0  0  0  0  0  0  0  0  0  0  0  0
   -1.9777   26.0706   13.4265 C   0  0  0  0  0  0  0  0  0  0  0  0
   -0.5349   26.1834   13.0321 O   0  0  0  0  0  0  0  0  0  0  0  0
   -2.8995   25.1767   12.6511 C   0  0  0  0  0  0  0  0  0  0  0  0
   -4.3424   25.0639   13.0455 C   0  0  0  0  0  0  0  0  0  0  0  0
   -4.8634   25.8452   14.2153 O   0  0  0  0  0  0  0  0  0  0  0  0
   -8.6174   26.3962   12.2394 C   0  0  0  0  0  0  0  0  0  0  0  0
   -8.1832   26.0080   13.6217 N   0  0  0  0  0  0  0  0  0  0  0  0
   -8.6708   24.7258   14.2286 C   0  0  0  0  0  0  0  0  0  0  0  0
   -9.5926   23.8319   13.4532 C   0  0  0  0  0  0  0  0  0  0  0  0
  -10.0801   22.5498   14.0601 C   0  0  0  0  0  0  0  0  0  0  0  0
   -9.6460   22.1616   15.4424 C   0  0  0  0  0  0  0  0  0  0  0  0
   -8.7242   23.0555   16.2178 C   0  0  0  0  0  0  0  0  0  0  0  0
   -8.2366   24.3376   15.6109 C   0  0  0  0  0  0  0  0  0  0  0  0
   -7.3148   25.2315   16.3863 C   0  0  0  0  0  0  0  0  0  0  0  0
   -6.8272   26.5136   15.7794 C   0  0  0  0  0  0  0  0  0  0  0  0
   -7.2614   26.9019   14.3971 C   0  0  0  0  0  0  0  0  0  0  0  0
   -6.7738   28.1841   13.7901 O   0  0  0  0  0  0  0  0  0  0  0  0
  -11.0020   21.6558   13.2848 O   0  0  0  0  0  0  0  0  0  0  0  0
  -12.4239   22.0700   13.0468 C   0  0  0  0  0  0  0  0  0  0  0  0
   -2.3785   24.3955   11.4814 C   0  0  0  0  0  0  0  0  0  0  0  0
   -2.2444   25.0533   10.1400 C   0  0  0  0  0  0  0  0  0  0  0  0
   -1.7234   24.2721    8.9703 C   0  0  0  0  0  0  0  0  0  0  0  0
   -1.3365   22.8330    9.1419 C   0  0  0  0  0  0  0  0  0  0  0  0
   -1.4705   22.1752   10.4833 C   0  0  0  0  0  0  0  0  0  0  0  0
   -1.9916   22.9565   11.6531 C   0  0  0  0  0  0  0  0  0  0  0  0
   -0.8154   22.0519    7.9722 O   0  0  0  0  0  0  0  0  0  0  0  0
    0.6249   21.6351    7.9303 C   0  0  0  0  0  0  0  0  0  0  0  0
   -0.1341   27.8585   14.9771 O   0  0  0  0  0  0  0  0  0  0  0  0
    0.8144   26.7349   15.2735 C   0  0  0  0  0  0  0  0  0  0  0  0
 17 18  1  0  0  0
 18 19  1  0  0  0
 19 20  2  0  0  0
 20 21  1  0  0  0
 21 22  2  0  0  0
 22 23  1  0  0  0
 23 24  2  0  0  0
 24 25  1  0  0  0
 25 26  2  0  0  0
 26 27  1  0  0  0
 27 28  2  0  0  0
  1 26  1  0  0  0
  1  2  1  0  0  0
  2  3  1  0  0  0
  3  4  2  0  0  0
  3  5  1  0  0  0
  5  6  1  0  0  0
  6  7  2  0  0  0
  7  8  1  0  0  0
  8  9  2  0  0  0
  9 10  1  0  0  0
 10 11  2  0  0  0
 10 39  1  0  0  0
 39 40  1  0  0  0
  9 12  1  0  0  0
 12 13  2  0  0  0
 12 14  1  0  0  0
 14 15  2  0  0  0
 15 16  1  0  0  0
 14 31  1  0  0  0
 31 32  2  0  0  0
 32 33  1  0  0  0
 33 34  2  0  0  0
 34 35  1  0  0  0
 35 36  2  0  0  0
 34 37  1  0  0  0
 37 38  1  0  0  0
 21 29  1  0  0  0
 29 30  1  0  0  0
 27 18  1  0  0  0
 24 19  1  0  0  0
  7  1  1  0  0  0
 11  6  1  0  0  0
 16  8  1  0  0  0
 36 31  1  0  0  0
M  END
> <minimizedAffinity>
8.76138

$$$$



 39 45  0  0  0  0  0  0  0  0999 V2000
   -0.2584   27.2336   13.3409 C   0  0  0  0  0  0  0  0  0  0  0  0
   -1.2219   26.0905   13.4636 C   0  0  0  0  0  0  0  0  0  0  0  0
   -2.4909   26.2598   14.2452 C   0  0  0  0  0  0  0  0  0  0  0  0
   -3.4544   25.1168   14.3678 C   0  0  0  0  0  0  0  0  0  0  0  0
   -4.6168   25.5771   15.1967 C   0  0  0  0  0  0  0  0  0  0  0  0
   -4.3716   27.0048   15.5864 C   0  0  0  0  0  0  0  0  0  0  0  0
   -3.0577   27.4267   14.9982 O   0  0  0  0  0  0  0  0  0  0  0  0
   -3.1489   23.8044   13.7089 C   0  0  0  0  0  0  0  0  0  0  0  0
   -1.8798   23.6351   12.9273 C   0  0  0  0  0  0  0  0  0  0  0  0
   -0.9164   24.7781   12.8046 N   0  0  0  0  0  0  0  0  0  0  0  0
   -5.2806   27.8603   16.4180 C   0  0  0  0  0  0  0  0  0  0  0  0
   -4.7283   28.6347   17.5779 C   0  0  0  0  0  0  0  0  0  0  0  0
   -5.6374   29.4902   18.4096 C   0  0  0  0  0  0  0  0  0  0  0  0
   -5.0851   30.2646   19.5695 O   0  0  0  0  0  0  0  0  0  0  0  0
   -7.0988   29.5713   18.0815 O   0  0  0  0  0  0  0  0  0  0  0  0
   -7.6511   28.7969   16.9215 C   0  0  0  0  0  0  0  0  0  0  0  0
   -6.7421   27.9414   16.0899 C   0  0  0  0  0  0  0  0  0  0  0  0
   -7.2944   27.1670   14.9300 C   0  0  0  0  0  0  0  0  0  0  0  0
   -8.7558   27.2481   14.6019 C   0  0  0  0  0  0  0  0  0  0  0  0
   -9.6649   28.1036   15.4336 C   0  0  0  0  0  0  0  0  0  0  0  0
   -9.1126   28.8780   16.5934 C   0  0  0  0  0  0  0  0  0  0  0  0
  -11.0516   27.9873   14.8736 O   0  0  0  0  0  0  0  0  0  0  0  0
  -10.9995   27.0600   13.6957 C   0  0  0  0  0  0  0  0  0  0  0  0
   -9.5806   26.6031   13.5278 O   0  0  0  0  0  0  0  0  0  0  0  0
   -4.1124   22.6613   13.8315 C   0  0  0  0  0  0  0  0  0  0  0  0
   -5.5481   22.9244   14.1777 N   0  0  0  0  0  0  0  0  0  0  0  0
   -6.4875   23.4494   13.1327 C   0  0  0  0  0  0  0  0  0  0  0  0
   -7.9231   23.7124   13.4788 C   0  0  0  0  0  0  0  0  0  0  0  0
   -8.4193   23.4504   14.8700 N   0  0  0  0  0  0  0  0  0  0  0  0
   -7.4799   22.9255   15.9149 C   0  0  0  0  0  0  0  0  0  0  0  0
   -6.0443   22.6624   15.5688 C   0  0  0  0  0  0  0  0  0  0  0  0
   -9.8549   23.7134   15.2161 C   0  0  0  0  0  0  0  0  0  0  0  0
  -10.2001   24.7376   16.2563 C   0  0  0  0  0  0  0  0  0  0  0  0
  -11.6358   25.0006   16.6024 C   0  0  0  0  0  0  0  0  0  0  0  0
  -12.7262   24.2394   15.9083 C   0  0  0  0  0  0  0  0  0  0  0  0
  -12.3809   23.2153   14.8682 C   0  0  0  0  0  0  0  0  0  0  0  0
  -10.9453   22.9523   14.5220 C   0  0  0  0  0  0  0  0  0  0  0  0
  -10.6000   21.9282   13.4819 O   0  0  0  0  0  0  0  0  0  0  0  0
  -11.6794   21.0800   12.8771 C   0  0  0  0  0  0  0  0  0  0  0  0
  1  2  1  0  0  0
  2  3  2  0  0  0
  3  4  1  0  0  0
  4  5  1  0  0  0
  5  6  2  0  0  0
  6  7  1  0  0  0
  6 11  1  0  0  0
 11 12  2  0  0  0
 12 13  1  0  0  0
 13 14  2  0  0  0
 13 15  1  0  0  0
 15 16  1  0  0  0
 16 17  2  0  0  0
 17 18  1  0  0  0
 18 19  2  0  0  0
 19 20  1  0  0  0
 20 21  2  0  0  0
 20 22  1  0  0  0
 22 23  1  0  0  0
 23 24  1  0  0  0
  4  8  2  0  0  0
  8  9  1  0  0  0
  9 10  2  0  0  0
  8 25  1  0  0  0
 25 26  1  0  0  0
 26 27  1  0  0  0
 27 28  1  0  0  0
 28 29  1  0  0  0
 29 30  1  0  0  0
 30 31  1  0  0  0
 29 32  1  0  0  0
 32 33  2  0  0  0
 33 34  1  0  0  0
 34 35  2  0  0  0
 35 36  1  0  0  0
 36 37  2  0  0  0
 37 38  1  0  0  0
 38 39  1  0  0  0
 10  2  1  0  0  0
  7  3  1  0  0  0
 17 11  1  0  0  0
 21 16  1  0  0  0
 24 19  1  0  0  0
 31 26  1  0  0  0
 37 32  1  0  0  0
M  END
> <minimizedAffinity>
-1.86997

$$$$



 30 32  0  0  0  0  0  0  0  0999 V2000
   -5.6432   27.4004   14.2704 C   0  0  0  0  0  0  0  0  0  0  0  0
   -6.2339   26.2147   13.5668 C   0  0  0  0  0  0  0  0  0  0  0  0
   -7.6805   25.8701   13.7633 C   0  0  0  0  0  0  0  0  0  0  0  0
   -8.5363   26.7112   14.6633 C   0  0  0  0  0  0  0  0  0  0  0  0
   -7.9456   27.8969   15.3669 C   0  0  0  0  0  0  0  0  0  0  0  0
   -6.4990   28.2415   15.1704 C   0  0  0  0  0  0  0  0  0  0  0  0
   -8.8014   28.7380   16.2670 Br  0  0  0  0  0  0  0  0  0  0  0  0
   -0.9665   25.7248   14.8163 N   0  0  0  0  0  0  0  0  0  0  0  0
   -1.6524   26.9616   14.3166 C   0  0  0  0  0  0  0  0  0  0  0  0
   -0.9770   28.1864   13.7745 O   0  0  0  0  0  0  0  0  0  0  0  0
   -3.1323   26.7588   14.4542 C   0  0  0  0  0  0  0  0  0  0  0  0
   -4.1965   27.7450   14.0739 C   0  0  0  0  0  0  0  0  0  0  0  0
   -3.3609   25.3965   15.0390 S   0  0  0  0  0  0  0  0  0  0  0  0
   -2.0225   24.7575   15.2628 C   0  0  0  0  0  0  0  0  0  0  0  0
   -1.7821   23.3910   15.8329 S   0  0  0  0  0  0  0  0  0  0  0  0
    2.6888   24.6032   13.7530 C   0  0  0  0  0  0  0  0  0  0  0  0
    1.2071   24.8325   13.7077 C   0  0  0  0  0  0  0  0  0  0  0  0
    0.4174   24.3987   12.5085 O   0  0  0  0  0  0  0  0  0  0  0  0
    0.5152   25.4955   14.8616 N   0  0  0  0  0  0  0  0  0  0  0  0
   -8.2713   24.6843   13.0597 O   0  0  0  0  0  0  0  0  0  0  0  0
   -7.4745   23.4211   12.9205 C   0  0  0  0  0  0  0  0  0  0  0  0
   -9.9830   26.3666   14.8598 O   0  0  0  0  0  0  0  0  0  0  0  0
  -10.3628   25.1249   15.6109 C   0  0  0  0  0  0  0  0  0  0  0  0
  -11.1333   24.0379   14.9220 C   0  0  0  0  0  0  0  0  0  0  0  0
  -12.4221   24.3583   14.2246 C   0  0  0  0  0  0  0  0  0  0  0  0
  -13.1926   23.2712   13.5358 C   0  0  0  0  0  0  0  0  0  0  0  0
  -12.6742   21.8637   13.5442 C   0  0  0  0  0  0  0  0  0  0  0  0
  -11.3854   21.5432   14.2415 C   0  0  0  0  0  0  0  0  0  0  0  0
  -10.6149   22.6303   14.9304 C   0  0  0  0  0  0  0  0  0  0  0  0
   -9.3261   22.3098   15.6277 Cl  0  0  0  0  0  0  0  0  0  0  0  0
 16 17  1  0  0  0
 17 18  2  0  0  0
 17 19  1  0  0  0
 19  8  1  0  0  0
  8  9  1  0  0  0
  9 10  2  0  0  0
  9 11  1  0  0  0
 11 12  2  0  0  0
 12  1  1  0  0  0
  1  2  2  0  0  0
  2  3  1  0  0  0
  3  4  2  0  0  0
  4  5  1  0  0  0
  5  6  2  0  0  0
  5  7  1  0  0  0
  4 22  1  0  0  0
 22 23  1  0  0  0
 23 24  1  0  0  0
 24 25  2  0  0  0
 25 26  1  0  0  0
 26 27  2  0  0  0
 27 28  1  0  0  0
 28 29  2  0  0  0
 29 30  1  0  0  0
  3 20  1  0  0  0
 20 21  1  0  0  0
 11 13  1  0  0  0
 13 14  1  0  0  0
 14 15  2  0  0  0
 14  8  1  0  0  0
  6  1  1  0  0  0
 29 24  1  0  0  0
M  END
> <minimizedAffinity>
-8.30461

$$$$



 39 43  0  0  0  0  0  0  0  0999 V2000
   -2.8476   23.9100   15.3430 C   0  0  0  0  0  0  0  0  0  0  0  0
   -3.9986   22.9844   15.6050 C   0  0  0  0  0  0  0  0  0  0  0  0
   -5.2654   23.7823   15.5127 C   0  0  0  0  0  0  0  0  0  0  0  0
   -4.8974   25.2010   15.1935 N   0  0  0  0  0  0  0  0  0  0  0  0
   -3.4031   25.2799   15.0887 N   0  0  0  0  0  0  0  0  0  0  0  0
   -2.6046   26.5124   14.7831 C   0  0  0  0  0  0  0  0  0  0  0  0
   -1.1081   26.4376   14.7103 O   0  0  0  0  0  0  0  0  0  0  0  0
   -6.6561   23.2543   15.7056 C   0  0  0  0  0  0  0  0  0  0  0  0
   -7.1470   22.9202   17.0830 C   0  0  0  0  0  0  0  0  0  0  0  0
   -8.5377   22.3921   17.2759 C   0  0  0  0  0  0  0  0  0  0  0  0
   -9.4373   22.1981   16.0915 C   0  0  0  0  0  0  0  0  0  0  0  0
   -8.9463   22.5322   14.7141 C   0  0  0  0  0  0  0  0  0  0  0  0
   -7.5557   23.0602   14.5211 C   0  0  0  0  0  0  0  0  0  0  0  0
   -9.8459   22.3382   13.5296 C   0  0  0  0  0  0  0  0  0  0  0  0
  -10.8280   21.6700   16.2844 C   0  0  0  0  0  0  0  0  0  0  0  0
    2.9587   22.3979   15.3167 C   0  0  0  0  0  0  0  0  0  0  0  0
    1.5071   22.7759   15.3233 C   0  0  0  0  0  0  0  0  0  0  0  0
    0.6641   22.4939   16.5315 C   0  0  0  0  0  0  0  0  0  0  0  0
   -0.7875   22.8719   16.5380 C   0  0  0  0  0  0  0  0  0  0  0  0
   -1.3961   23.5320   15.3364 C   0  0  0  0  0  0  0  0  0  0  0  0
   -0.5531   23.8140   14.1282 C   0  0  0  0  0  0  0  0  0  0  0  0
    0.8985   23.4360   14.1217 C   0  0  0  0  0  0  0  0  0  0  0  0
   -3.3023   27.8196   14.5503 C   0  0  0  0  0  0  0  0  0  0  0  0
   -4.7968   27.8608   14.4280 N   0  0  0  0  0  0  0  0  0  0  0  0
   -5.6468   27.9849   15.6577 C   0  0  0  0  0  0  0  0  0  0  0  0
   -5.0023   28.0677   17.0097 O   0  0  0  0  0  0  0  0  0  0  0  0
   -7.1412   28.0261   15.5354 C   0  0  0  0  0  0  0  0  0  0  0  0
   -8.0605   28.9569   16.2692 C   0  0  0  0  0  0  0  0  0  0  0  0
   -9.4662   28.6498   15.8451 C   0  0  0  0  0  0  0  0  0  0  0  0
   -9.4156   27.5292   14.8492 C   0  0  0  0  0  0  0  0  0  0  0  0
   -7.9786   27.1438   14.6578 O   0  0  0  0  0  0  0  0  0  0  0  0
   -5.4412   27.7780   13.0761 C   0  0  0  0  0  0  0  0  0  0  0  0
   -5.3753   26.5017   12.2907 C   0  0  0  0  0  0  0  0  0  0  0  0
   -4.1524   26.1798   11.4840 N   0  0  0  0  0  0  0  0  0  0  0  0
   -3.3904   24.9153   11.7491 C   0  0  0  0  0  0  0  0  0  0  0  0
   -2.1675   24.5934   10.9424 C   0  0  0  0  0  0  0  0  0  0  0  0
   -1.7065   25.5359    9.8704 O   0  0  0  0  0  0  0  0  0  0  0  0
   -2.4686   26.8004    9.6052 C   0  0  0  0  0  0  0  0  0  0  0  0
   -3.6915   27.1223   10.4120 C   0  0  0  0  0  0  0  0  0  0  0  0
 16 17  1  0  0  0
 17 18  2  0  0  0
 18 19  1  0  0  0
 19 20  2  0  0  0
 20 21  1  0  0  0
 21 22  2  0  0  0
  1 20  1  0  0  0
  1  2  1  0  0  0
  2  3  1  0  0  0
  3  4  2  0  0  0
  4  5  1  0  0  0
  5  6  1  0  0  0
  6  7  2  0  0  0
  6 23  1  0  0  0
 23 24  1  0  0  0
 24 32  1  0  0  0
 32 33  1  0  0  0
 33 34  1  0  0  0
 34 35  1  0  0  0
 35 36  1  0  0  0
 36 37  1  0  0  0
 37 38  1  0  0  0
 38 39  1  0  0  0
 24 25  1  0  0  0
 25 26  2  0  0  0
 25 27  1  0  0  0
 27 28  2  0  0  0
 28 29  1  0  0  0
 29 30  2  0  0  0
 30 31  1  0  0  0
  3  8  1  0  0  0
  8  9  2  0  0  0
  9 10  1  0  0  0
 10 11  2  0  0  0
 11 12  1  0  0  0
 12 13  2  0  0  0
 12 14  1  0  0  0
 11 15  1  0  0  0
 22 17  1  0  0  0
  5  1  1  0  0  0
 39 34  1  0  0  0
 31 27  1  0  0  0
 13  8  1  0  0  0
M  END
> <minimizedAffinity>
-5.05118

$$$$



 34 38  0  0  0  0  0  0  0  0999 V2000
   -3.9251   24.3187   13.6660 C   0  0  0  0  0  0  0  0  0  0  0  0
   -5.3726   24.0858   13.9831 C   0  0  0  0  0  0  0  0  0  0  0  0
   -5.4640   23.5950   15.3976 C   0  0  0  0  0  0  0  0  0  0  0  0
   -6.9115   23.3620   15.7147 C   0  0  0  0  0  0  0  0  0  0  0  0
   -7.4596   22.8688   17.0210 O   0  0  0  0  0  0  0  0  0  0  0  0
   -7.7147   23.7088   14.4962 N   0  0  0  0  0  0  0  0  0  0  0  0
   -6.7635   24.1561   13.4260 C   0  0  0  0  0  0  0  0  0  0  0  0
   -7.1376   24.5964   12.0418 O   0  0  0  0  0  0  0  0  0  0  0  0
   -4.0731   23.5246   15.9547 O   0  0  0  0  0  0  0  0  0  0  0  0
   -3.1220   23.9719   14.8845 N   0  0  0  0  0  0  0  0  0  0  0  0
   -9.2068   23.6233   14.3701 C   0  0  0  0  0  0  0  0  0  0  0  0
   -9.8516   22.3353   13.9510 C   0  0  0  0  0  0  0  0  0  0  0  0
  -11.3437   22.2498   13.8249 C   0  0  0  0  0  0  0  0  0  0  0  0
  -12.1913   23.4523   14.1178 C   0  0  0  0  0  0  0  0  0  0  0  0
  -11.5467   24.7402   14.5368 C   0  0  0  0  0  0  0  0  0  0  0  0
  -10.0544   24.8257   14.6630 C   0  0  0  0  0  0  0  0  0  0  0  0
  -13.6836   23.3668   13.9916 Br  0  0  0  0  0  0  0  0  0  0  0  0
   -1.8478   24.4678   10.2878 C   0  0  0  0  0  0  0  0  0  0  0  0
   -2.2808   25.7984    9.7472 C   0  0  0  0  0  0  0  0  0  0  0  0
   -3.2618   26.6357   10.5129 C   0  0  0  0  0  0  0  0  0  0  0  0
   -3.8099   26.1425   11.8192 C   0  0  0  0  0  0  0  0  0  0  0  0
   -3.3770   24.8119   12.3598 C   0  0  0  0  0  0  0  0  0  0  0  0
   -2.3959   23.9746   11.5940 C   0  0  0  0  0  0  0  0  0  0  0  0
   -1.1931   23.1777    8.1297 C   0  0  0  0  0  0  0  0  0  0  0  0
   -0.8667   23.6305    9.5220 O   0  0  0  0  0  0  0  0  0  0  0  0
   -1.6297   24.0574   15.0106 C   0  0  0  0  0  0  0  0  0  0  0  0
   -0.9497   25.3941   14.9789 C   0  0  0  0  0  0  0  0  0  0  0  0
    0.5425   25.4795   15.1050 C   0  0  0  0  0  0  0  0  0  0  0  0
    1.3548   24.2284   15.2629 C   0  0  0  0  0  0  0  0  0  0  0  0
    0.6748   22.8918   15.2947 C   0  0  0  0  0  0  0  0  0  0  0  0
   -0.8175   22.8063   15.1686 C   0  0  0  0  0  0  0  0  0  0  0  0
    1.4869   21.6406   15.4526 N   0  0  0  0  0  0  0  0  0  0  0  0
    0.8030   20.3285   15.6987 O   0  0  0  0  0  0  0  0  0  0  0  0
    2.9831   21.7016   15.3644 O   0  0  0  0  0  0  0  0  0  0  0  0
 24 25  1  0  0  0
 25 18  1  0  0  0
 18 19  2  0  0  0
 19 20  1  0  0  0
 20 21  2  0  0  0
 21 22  1  0  0  0
 22 23  2  0  0  0
  1 22  1  0  0  0
  1  2  1  0  0  0
  2  3  1  0  0  0
  3  4  1  0  0  0
  4  5  2  0  0  0
  4  6  1  0  0  0
  6  7  1  0  0  0
  7  8  2  0  0  0
  6 11  1  0  0  0
 11 12  2  0  0  0
 12 13  1  0  0  0
 13 14  2  0  0  0
 14 15  1  0  0  0
 15 16  2  0  0  0
 14 17  1  0  0  0
  3  9  1  0  0  0
  9 10  1  0  0  0
 10 26  1  0  0  0
 26 27  2  0  0  0
 27 28  1  0  0  0
 28 29  2  0  0  0
 29 30  1  0  0  0
 30 31  2  0  0  0
 30 32  1  0  0  0
 32 33  2  0  0  0
 32 34  1  0  0  0
 23 18  1  0  0  0
 10  1  1  0  0  0
  2  7  1  0  0  0
 16 11  1  0  0  0
 31 26  1  0  0  0
M  CHG 1  32   1
M  CHG 1  34  -1
M  END
> <minimizedAffinity>
-9.50696

$$$$



 38 43  0  0  0  0  0  0  0  0999 V2000
   -5.2679   23.6810   14.3789 N   0  0  0  0  0  0  0  0  0  0  0  0
   -4.7937   25.0840   14.6169 C   0  0  0  0  0  0  0  0  0  0  0  0
   -3.3245   25.1337   14.3187 C   0  0  0  0  0  0  0  0  0  0  0  0
   -2.3256   26.2511   14.3771 C   0  0  0  0  0  0  0  0  0  0  0  0
   -2.7595   27.6235   14.7996 O   0  0  0  0  0  0  0  0  0  0  0  0
   -0.8929   25.9963   14.0132 C   0  0  0  0  0  0  0  0  0  0  0  0
    0.1059   27.1138   14.0717 C   0  0  0  0  0  0  0  0  0  0  0  0
    1.5386   26.8589   13.7077 C   0  0  0  0  0  0  0  0  0  0  0  0
    1.9724   25.4866   13.2853 C   0  0  0  0  0  0  0  0  0  0  0  0
    0.9736   24.3691   13.2269 C   0  0  0  0  0  0  0  0  0  0  0  0
   -0.4591   24.6240   13.5908 C   0  0  0  0  0  0  0  0  0  0  0  0
   -1.4580   23.5064   13.5323 O   0  0  0  0  0  0  0  0  0  0  0  0
   -2.8907   23.7613   13.8963 C   0  0  0  0  0  0  0  0  0  0  0  0
   -4.0918   22.8635   13.9335 C   0  0  0  0  0  0  0  0  0  0  0  0
   -4.1130   21.4044   13.5862 O   0  0  0  0  0  0  0  0  0  0  0  0
  -11.3683   21.5861   14.3901 C   0  0  0  0  0  0  0  0  0  0  0  0
  -11.1590   21.5217   15.8740 C   0  0  0  0  0  0  0  0  0  0  0  0
   -9.8387   21.9209   16.4633 C   0  0  0  0  0  0  0  0  0  0  0  0
   -8.7274   22.3844   15.5686 C   0  0  0  0  0  0  0  0  0  0  0  0
   -8.9367   22.4488   14.0846 C   0  0  0  0  0  0  0  0  0  0  0  0
  -10.2572   22.0496   13.4954 C   0  0  0  0  0  0  0  0  0  0  0  0
   -7.6663   22.9423   13.4584 S   0  0  0  0  0  0  0  0  0  0  0  0
   -6.6718   23.1830   14.5552 C   0  0  0  0  0  0  0  0  0  0  0  0
   -7.3277   22.8381   15.8594 N   0  0  0  0  0  0  0  0  0  0  0  0
  -12.9828   21.4714   12.3578 C   0  0  0  0  0  0  0  0  0  0  0  0
  -12.6888   21.1869   13.8009 O   0  0  0  0  0  0  0  0  0  0  0  0
   -5.6401   26.2353   15.0732 C   0  0  0  0  0  0  0  0  0  0  0  0
   -7.0193   26.4204   14.5133 C   0  0  0  0  0  0  0  0  0  0  0  0
   -7.8658   27.5717   14.9695 C   0  0  0  0  0  0  0  0  0  0  0  0
   -7.3329   28.5379   15.9856 C   0  0  0  0  0  0  0  0  0  0  0  0
   -5.9537   28.3529   16.5454 C   0  0  0  0  0  0  0  0  0  0  0  0
   -5.1072   27.2016   16.0892 C   0  0  0  0  0  0  0  0  0  0  0  0
   -5.4208   29.3191   17.5615 O   0  0  0  0  0  0  0  0  0  0  0  0
   -5.9471   29.2967   18.9660 C   0  0  0  0  0  0  0  0  0  0  0  0
   -8.1793   29.6893   16.4418 O   0  0  0  0  0  0  0  0  0  0  0  0
   -9.5098   29.4333   17.0855 C   0  0  0  0  0  0  0  0  0  0  0  0
   -9.2450   27.7567   14.4096 O   0  0  0  0  0  0  0  0  0  0  0  0
  -10.2116   26.6097   14.4027 C   0  0  0  0  0  0  0  0  0  0  0  0
 25 26  1  0  0  0
 26 16  1  0  0  0
 16 17  2  0  0  0
 17 18  1  0  0  0
 18 19  2  0  0  0
 19 20  1  0  0  0
 20 21  2  0  0  0
 20 22  1  0  0  0
 22 23  1  0  0  0
 23 24  2  0  0  0
 23  1  1  0  0  0
  1  2  1  0  0  0
  2  3  1  0  0  0
  3  4  1  0  0  0
  4  5  2  0  0  0
  4  6  1  0  0  0
  6  7  2  0  0  0
  7  8  1  0  0  0
  8  9  2  0  0  0
  9 10  1  0  0  0
 10 11  2  0  0  0
 11 12  1  0  0  0
 12 13  1  0  0  0
 13 14  1  0  0  0
 14 15  2  0  0  0
  2 27  1  0  0  0
 27 28  2  0  0  0
 28 29  1  0  0  0
 29 30  2  0  0  0
 30 31  1  0  0  0
 31 32  2  0  0  0
 31 33  1  0  0  0
 33 34  1  0  0  0
 30 35  1  0  0  0
 35 36  1  0  0  0
 29 37  1  0  0  0
 37 38  1  0  0  0
 21 16  1  0  0  0
 24 19  1  0  0  0
 14  1  1  0  0  0
 13  3  2  0  0  0
 11  6  1  0  0  0
 32 27  1  0  0  0
M  END
> <minimizedAffinity>
-3.42527

$$$$



 39 45  0  0  0  0  0  0  0  0999 V2000
   -4.5592   21.9212   14.2160 C   0  0  0  0  0  0  0  0  0  0  0  0
   -3.8370   23.2326   14.3072 C   0  0  0  0  0  0  0  0  0  0  0  0
   -4.4577   24.5609   14.6243 C   0  0  0  0  0  0  0  0  0  0  0  0
   -3.3715   25.5953   14.6104 C   0  0  0  0  0  0  0  0  0  0  0  0
   -2.0795   24.9064   14.2847 N   0  0  0  0  0  0  0  0  0  0  0  0
   -2.3672   23.4462   14.0974 N   0  0  0  0  0  0  0  0  0  0  0  0
   -3.6993   27.0309   14.8961 O   0  0  0  0  0  0  0  0  0  0  0  0
   -5.1133   27.4321   15.1957 C   0  0  0  0  0  0  0  0  0  0  0  0
   -6.1995   26.3976   15.2096 C   0  0  0  0  0  0  0  0  0  0  0  0
   -7.6135   26.7988   15.5092 C   0  0  0  0  0  0  0  0  0  0  0  0
   -8.8850   26.0075   15.5930 N   0  0  0  0  0  0  0  0  0  0  0  0
   -9.9986   26.9540   15.9306 C   0  0  0  0  0  0  0  0  0  0  0  0
   -9.4153   28.3303   16.0553 N   0  0  0  0  0  0  0  0  0  0  0  0
   -7.9412   28.2344   15.7949 N   0  0  0  0  0  0  0  0  0  0  0  0
   -6.8551   29.2688   15.7810 C   0  0  0  0  0  0  0  0  0  0  0  0
   -5.4411   28.8676   15.4814 N   0  0  0  0  0  0  0  0  0  0  0  0
   -5.8716   24.9620   14.9239 C   0  0  0  0  0  0  0  0  0  0  0  0
   -0.7358   25.5625   14.1671 C   0  0  0  0  0  0  0  0  0  0  0  0
   -0.5184   26.6511   13.1582 C   0  0  0  0  0  0  0  0  0  0  0  0
    0.8254   27.3072   13.0406 C   0  0  0  0  0  0  0  0  0  0  0  0
    1.9517   26.8748   13.9318 C   0  0  0  0  0  0  0  0  0  0  0  0
    1.7344   25.7863   14.9407 C   0  0  0  0  0  0  0  0  0  0  0  0
    0.3906   25.1301   15.0584 C   0  0  0  0  0  0  0  0  0  0  0  0
    2.8608   25.3538   15.8319 Cl  0  0  0  0  0  0  0  0  0  0  0  0
   -6.9578   23.9276   14.9378 C   0  0  0  0  0  0  0  0  0  0  0  0
   -7.7712   23.6775   13.7025 C   0  0  0  0  0  0  0  0  0  0  0  0
   -8.8573   22.6431   13.7164 C   0  0  0  0  0  0  0  0  0  0  0  0
   -9.1302   21.8588   14.9656 C   0  0  0  0  0  0  0  0  0  0  0  0
   -8.3168   22.1089   16.2008 N   0  0  0  0  0  0  0  0  0  0  0  0
   -7.2307   23.1433   16.1869 C   0  0  0  0  0  0  0  0  0  0  0  0
  -11.4420   26.5884   16.1115 C   0  0  0  0  0  0  0  0  0  0  0  0
  -11.9547   25.2781   15.5918 C   0  0  0  0  0  0  0  0  0  0  0  0
  -12.6740   25.2225   14.2767 C   0  0  0  0  0  0  0  0  0  0  0  0
  -13.1867   23.9122   13.7570 C   0  0  0  0  0  0  0  0  0  0  0  0
  -12.9801   22.6573   14.5523 C   0  0  0  0  0  0  0  0  0  0  0  0
  -12.2607   22.7129   15.8675 C   0  0  0  0  0  0  0  0  0  0  0  0
  -11.7480   24.0232   16.3872 C   0  0  0  0  0  0  0  0  0  0  0  0
  -13.4928   21.3470   14.0326 O   0  0  0  0  0  0  0  0  0  0  0  0
  -12.9220   20.7644   12.7737 C   0  0  0  0  0  0  0  0  0  0  0  0
  1  2  1  0  0  0
  2  3  1  0  0  0
  3  4  2  0  0  0
  4  5  1  0  0  0
  5  6  1  0  0  0
  5 18  1  0  0  0
 18 19  2  0  0  0
 19 20  1  0  0  0
 20 21  2  0  0  0
 21 22  1  0  0  0
 22 23  2  0  0  0
 22 24  1  0  0  0
  4  7  1  0  0  0
  7  8  1  0  0  0
  8  9  2  0  0  0
  9 10  1  0  0  0
 10 11  2  0  0  0
 11 12  1  0  0  0
 12 13  2  0  0  0
 13 14  1  0  0  0
 14 15  1  0  0  0
 15 16  2  0  0  0
 12 31  1  0  0  0
 31 32  1  0  0  0
 32 33  2  0  0  0
 33 34  1  0  0  0
 34 35  2  0  0  0
 35 36  1  0  0  0
 36 37  2  0  0  0
 35 38  1  0  0  0
 38 39  1  0  0  0
  9 17  1  0  0  0
 17 25  1  0  0  0
 25 26  2  0  0  0
 26 27  1  0  0  0
 27 28  2  0  0  0
 28 29  1  0  0  0
 29 30  2  0  0  0
  6  2  2  0  0  0
 17  3  1  0  0  0
 23 18  1  0  0  0
 16  8  1  0  0  0
 14 10  1  0  0  0
 37 32  1  0  0  0
 30 25  1  0  0  0
M  END
> <minimizedAffinity>
-2.29658

$$$$



 34 38  0  0  0  0  0  0  0  0999 V2000
   -5.5314   23.5324   14.4436 N   0  0  0  0  0  0  0  0  0  0  0  0
   -5.4692   24.9729   14.0300 C   0  0  0  0  0  0  0  0  0  0  0  0
   -4.3464   25.1250   13.0470 C   0  0  0  0  0  0  0  0  0  0  0  0
   -3.8176   26.3156   12.3035 C   0  0  0  0  0  0  0  0  0  0  0  0
   -4.4495   27.6621   12.4974 O   0  0  0  0  0  0  0  0  0  0  0  0
   -2.6570   26.1596   11.3661 C   0  0  0  0  0  0  0  0  0  0  0  0
   -2.1283   27.3502   10.6225 C   0  0  0  0  0  0  0  0  0  0  0  0
   -0.9677   27.1943    9.6851 C   0  0  0  0  0  0  0  0  0  0  0  0
   -0.3359   25.8477    9.4913 C   0  0  0  0  0  0  0  0  0  0  0  0
   -0.8646   24.6571   10.2348 C   0  0  0  0  0  0  0  0  0  0  0  0
   -2.0252   24.8131   11.1722 C   0  0  0  0  0  0  0  0  0  0  0  0
   -2.5540   23.6224   11.9158 O   0  0  0  0  0  0  0  0  0  0  0  0
   -3.7145   23.7784   12.8532 C   0  0  0  0  0  0  0  0  0  0  0  0
   -4.4469   22.7942   13.7163 C   0  0  0  0  0  0  0  0  0  0  0  0
   -4.1474   21.3290   13.8318 O   0  0  0  0  0  0  0  0  0  0  0  0
   -0.4389   28.3849    8.9415 Br  0  0  0  0  0  0  0  0  0  0  0  0
  -10.0116   21.8015   16.6372 C   0  0  0  0  0  0  0  0  0  0  0  0
   -8.5660   22.1395   16.4224 C   0  0  0  0  0  0  0  0  0  0  0  0
   -7.9836   22.7839   15.1996 C   0  0  0  0  0  0  0  0  0  0  0  0
   -6.5067   22.9351   15.4141 C   0  0  0  0  0  0  0  0  0  0  0  0
   -6.1764   22.3840   16.7695 N   0  0  0  0  0  0  0  0  0  0  0  0
   -7.4491   21.8923   17.3927 O   0  0  0  0  0  0  0  0  0  0  0  0
   -6.3715   26.0690   14.5142 C   0  0  0  0  0  0  0  0  0  0  0  0
   -7.8217   26.0709   14.1310 C   0  0  0  0  0  0  0  0  0  0  0  0
   -8.7241   27.1670   14.6152 C   0  0  0  0  0  0  0  0  0  0  0  0
   -8.1762   28.2612   15.4827 C   0  0  0  0  0  0  0  0  0  0  0  0
   -6.7260   28.2593   15.8659 C   0  0  0  0  0  0  0  0  0  0  0  0
   -5.8236   27.1632   15.3817 C   0  0  0  0  0  0  0  0  0  0  0  0
   -6.1781   29.3534   16.7334 O   0  0  0  0  0  0  0  0  0  0  0  0
   -6.0498   29.1442   18.2132 C   0  0  0  0  0  0  0  0  0  0  0  0
   -9.0785   29.3572   15.9669 O   0  0  0  0  0  0  0  0  0  0  0  0
   -9.7860   29.2200   17.2824 C   0  0  0  0  0  0  0  0  0  0  0  0
  -10.1743   27.1688   14.2319 O   0  0  0  0  0  0  0  0  0  0  0  0
  -11.0318   25.9762   14.5359 C   0  0  0  0  0  0  0  0  0  0  0  0
 17 18  1  0  0  0
 18 19  2  0  0  0
 19 20  1  0  0  0
 20 21  2  0  0  0
 21 22  1  0  0  0
 20  1  1  0  0  0
  1  2  1  0  0  0
  2  3  1  0  0  0
  3  4  1  0  0  0
  4  5  2  0  0  0
  4  6  1  0  0  0
  6  7  2  0  0  0
  7  8  1  0  0  0
  8  9  2  0  0  0
  9 10  1  0  0  0
 10 11  2  0  0  0
 11 12  1  0  0  0
 12 13  1  0  0  0
 13 14  1  0  0  0
 14 15  2  0  0  0
  8 16  1  0  0  0
  2 23  1  0  0  0
 23 24  2  0  0  0
 24 25  1  0  0  0
 25 26  2  0  0  0
 26 27  1  0  0  0
 27 28  2  0  0  0
 27 29  1  0  0  0
 29 30  1  0  0  0
 26 31  1  0  0  0
 31 32  1  0  0  0
 25 33  1  0  0  0
 33 34  1  0  0  0
 22 18  1  0  0  0
 14  1  1  0  0  0
 13  3  2  0  0  0
 11  6  1  0  0  0
 28 23  1  0  0  0
M  END
> <minimizedAffinity>
-3.99166

$$$$



 29 31  0  0  0  0  0  0  0  0999 V2000
   -6.1343   25.7195   11.9851 C   0  0  0  0  0  0  0  0  0  0  0  0
   -4.7840   26.0632   12.5406 C   0  0  0  0  0  0  0  0  0  0  0  0
   -3.5330   26.2850   11.7432 C   0  0  0  0  0  0  0  0  0  0  0  0
   -3.4127   26.2020   10.2503 O   0  0  0  0  0  0  0  0  0  0  0  0
   -2.4235   26.6043   12.7008 N   0  0  0  0  0  0  0  0  0  0  0  0
   -2.9887   26.5798   14.0900 C   0  0  0  0  0  0  0  0  0  0  0  0
   -2.2286   26.8435   15.3559 O   0  0  0  0  0  0  0  0  0  0  0  0
   -4.4476   26.2454   13.9910 N   0  0  0  0  0  0  0  0  0  0  0  0
   -9.1118   26.5211   14.4836 C   0  0  0  0  0  0  0  0  0  0  0  0
   -7.9472   26.7140   13.5582 C   0  0  0  0  0  0  0  0  0  0  0  0
   -7.2990   25.5264   12.9105 C   0  0  0  0  0  0  0  0  0  0  0  0
   -7.8155   24.1458   13.1882 C   0  0  0  0  0  0  0  0  0  0  0  0
   -8.9802   23.9529   14.1136 C   0  0  0  0  0  0  0  0  0  0  0  0
   -9.6283   25.1405   14.7612 C   0  0  0  0  0  0  0  0  0  0  0  0
   -9.4967   22.5722   14.3913 I   0  0  0  0  0  0  0  0  0  0  0  0
   -9.0020   28.5193   16.1403 C   0  0  0  0  0  0  0  0  0  0  0  0
   -9.7599   27.7087   15.1312 O   0  0  0  0  0  0  0  0  0  0  0  0
  -10.7930   24.9474   15.6867 O   0  0  0  0  0  0  0  0  0  0  0  0
  -12.1865   25.2262   15.2067 C   0  0  0  0  0  0  0  0  0  0  0  0
  -13.1454   24.0935   14.9886 C   0  0  0  0  0  0  0  0  0  0  0  0
  -13.6101   23.7607   13.6019 C   0  0  0  0  0  0  0  0  0  0  0  0
   -0.9988   26.8967   12.3336 C   0  0  0  0  0  0  0  0  0  0  0  0
    0.1142   26.1148   12.9659 C   0  0  0  0  0  0  0  0  0  0  0  0
    1.4125   26.7901   13.2950 C   0  0  0  0  0  0  0  0  0  0  0  0
    2.5254   26.0082   13.9274 C   0  0  0  0  0  0  0  0  0  0  0  0
    2.3401   24.5510   14.2306 C   0  0  0  0  0  0  0  0  0  0  0  0
    1.0418   23.8756   13.9016 C   0  0  0  0  0  0  0  0  0  0  0  0
   -0.0712   24.6576   13.2692 C   0  0  0  0  0  0  0  0  0  0  0  0
    3.4531   23.7690   14.8630 Br  0  0  0  0  0  0  0  0  0  0  0  0
 16 17  1  0  0  0
 17  9  1  0  0  0
  9 10  2  0  0  0
 10 11  1  0  0  0
 11 12  2  0  0  0
 12 13  1  0  0  0
 13 14  2  0  0  0
 14 18  1  0  0  0
 18 19  1  0  0  0
 19 20  1  0  0  0
 20 21  2  0  0  0
 13 15  1  0  0  0
 11  1  1  0  0  0
  1  2  2  0  0  0
  2  3  1  0  0  0
  3  4  2  0  0  0
  3  5  1  0  0  0
  5  6  1  0  0  0
  6  7  2  0  0  0
  6  8  1  0  0  0
  5 22  1  0  0  0
 22 23  1  0  0  0
 23 24  2  0  0  0
 24 25  1  0  0  0
 25 26  2  0  0  0
 26 27  1  0  0  0
 27 28  2  0  0  0
 26 29  1  0  0  0
 14  9  1  0  0  0
  8  2  1  0  0  0
 28 23  1  0  0  0
M  END
> <minimizedAffinity>
-7.69447

$$$$



 30 32  0  0  0  0  0  0  0  0999 V2000
   -8.9120   25.9854   14.9039 C   0  0  0  0  0  0  0  0  0  0  0  0
   -7.4595   26.2087   14.6032 N   0  0  0  0  0  0  0  0  0  0  0  0
   -7.0753   27.5535   15.1455 C   0  0  0  0  0  0  0  0  0  0  0  0
   -5.7149   28.1803   15.0658 C   0  0  0  0  0  0  0  0  0  0  0  0
   -8.2903   28.1613   15.7813 C   0  0  0  0  0  0  0  0  0  0  0  0
   -8.3583   29.5026   16.4491 O   0  0  0  0  0  0  0  0  0  0  0  0
   -9.4255   27.1921   15.6320 O   0  0  0  0  0  0  0  0  0  0  0  0
  -12.1071   21.1195   13.4496 C   0  0  0  0  0  0  0  0  0  0  0  0
  -11.3083   22.3360   13.8132 C   0  0  0  0  0  0  0  0  0  0  0  0
   -9.8108   22.2638   13.8590 C   0  0  0  0  0  0  0  0  0  0  0  0
   -9.0120   23.4802   14.2226 C   0  0  0  0  0  0  0  0  0  0  0  0
   -9.7108   24.7689   14.5403 C   0  0  0  0  0  0  0  0  0  0  0  0
  -11.2083   24.8411   14.4945 C   0  0  0  0  0  0  0  0  0  0  0  0
  -12.0071   23.6247   14.1309 C   0  0  0  0  0  0  0  0  0  0  0  0
  -13.5047   23.6969   14.0851 N   0  0  0  0  0  0  0  0  0  0  0  0
  -14.3084   23.3876   15.3132 O   0  0  0  0  0  0  0  0  0  0  0  0
  -14.1985   24.0785   12.8111 O   0  0  0  0  0  0  0  0  0  0  0  0
   -4.5900   27.4487   14.3955 C   0  0  0  0  0  0  0  0  0  0  0  0
   -3.5696   26.7232   15.2215 C   0  0  0  0  0  0  0  0  0  0  0  0
   -2.4447   25.9916   14.5512 C   0  0  0  0  0  0  0  0  0  0  0  0
   -2.3403   25.9854   13.0548 C   0  0  0  0  0  0  0  0  0  0  0  0
   -3.3608   26.7109   12.2288 C   0  0  0  0  0  0  0  0  0  0  0  0
   -4.4856   27.4425   12.8992 C   0  0  0  0  0  0  0  0  0  0  0  0
   -3.2563   26.7047   10.7325 I   0  0  0  0  0  0  0  0  0  0  0  0
   -1.4242   25.2661   15.3772 O   0  0  0  0  0  0  0  0  0  0  0  0
   -1.5467   23.7865   15.5911 C   0  0  0  0  0  0  0  0  0  0  0  0
   -1.2154   25.2538   12.3845 O   0  0  0  0  0  0  0  0  0  0  0  0
    0.1874   25.7739   12.4925 C   0  0  0  0  0  0  0  0  0  0  0  0
    1.3368   24.8155   12.5944 O   0  0  0  0  0  0  0  0  0  0  0  0
    0.4407   27.2524   12.4986 C   0  0  0  0  0  0  0  0  0  0  0  0
  8  9  1  0  0  0
  9 10  2  0  0  0
 10 11  1  0  0  0
 11 12  2  0  0  0
 12 13  1  0  0  0
 13 14  2  0  0  0
 14 15  1  0  0  0
 15 16  2  0  0  0
 15 17  1  0  0  0
 12  1  1  0  0  0
  1  2  2  0  0  0
  2  3  1  0  0  0
  3  4  2  0  0  0
  4 18  1  0  0  0
 18 19  2  0  0  0
 19 20  1  0  0  0
 20 21  2  0  0  0
 21 22  1  0  0  0
 22 23  2  0  0  0
 22 24  1  0  0  0
 21 27  1  0  0  0
 27 28  1  0  0  0
 28 29  2  0  0  0
 28 30  1  0  0  0
 20 25  1  0  0  0
 25 26  1  0  0  0
  3  5  1  0  0  0
  5  6  2  0  0  0
  5  7  1  0  0  0
 14  9  1  0  0  0
  7  1  1  0  0  0
 23 18  1  0  0  0
M  CHG 1  15   1
M  CHG 1  17  -1
M  END
> <minimizedAffinity>
-7.60265

$$$$



 30 33  0  0  0  0  0  0  0  0999 V2000
   -1.8471   26.5631   11.8403 C   0  0  0  0  0  0  0  0  0  0  0  0
   -3.0564   26.7940   10.9833 C   0  0  0  0  0  0  0  0  0  0  0  0
   -4.4075   26.3463   11.4565 C   0  0  0  0  0  0  0  0  0  0  0  0
   -4.5495   25.6676   12.7867 C   0  0  0  0  0  0  0  0  0  0  0  0
   -3.3402   25.4367   13.6436 C   0  0  0  0  0  0  0  0  0  0  0  0
   -1.9891   25.8845   13.1704 C   0  0  0  0  0  0  0  0  0  0  0  0
   -5.9006   25.2199   13.2598 N   0  0  0  0  0  0  0  0  0  0  0  0
   -6.3205   23.8026   13.5145 C   0  0  0  0  0  0  0  0  0  0  0  0
   -5.4630   22.5842   13.3407 O   0  0  0  0  0  0  0  0  0  0  0  0
   -7.7485   23.8176   13.9735 C   0  0  0  0  0  0  0  0  0  0  0  0
   -8.8906   22.9509   14.4146 C   0  0  0  0  0  0  0  0  0  0  0  0
  -10.0590   23.8419   14.7162 C   0  0  0  0  0  0  0  0  0  0  0  0
   -9.6390   25.2592   14.4615 C   0  0  0  0  0  0  0  0  0  0  0  0
   -8.2111   25.2442   14.0025 C   0  0  0  0  0  0  0  0  0  0  0  0
   -7.0690   26.1108   13.5614 C   0  0  0  0  0  0  0  0  0  0  0  0
   -7.0914   27.6060   13.4428 O   0  0  0  0  0  0  0  0  0  0  0  0
  -10.7811   24.3925   14.9025 C   0  0  0  0  0  0  0  0  0  0  0  0
  -10.3185   22.9659   14.8736 C   0  0  0  0  0  0  0  0  0  0  0  0
  -11.1397   21.7651   15.2393 Br  0  0  0  0  0  0  0  0  0  0  0  0
  -12.1461   24.8688   15.3024 Br  0  0  0  0  0  0  0  0  0  0  0  0
   -0.4960   27.0109   11.3671 C   0  0  0  0  0  0  0  0  0  0  0  0
    0.4348   27.7124   12.3112 O   0  0  0  0  0  0  0  0  0  0  0  0
   -0.0756   26.7571    9.9498 C   0  0  0  0  0  0  0  0  0  0  0  0
    0.4033   25.3953    9.5419 C   0  0  0  0  0  0  0  0  0  0  0  0
    1.5333   25.2593    8.5648 O   0  0  0  0  0  0  0  0  0  0  0  0
   -0.2476   24.1697   10.1111 O   0  0  0  0  0  0  0  0  0  0  0  0
   -1.3371   23.1200    7.9989 C   0  0  0  0  0  0  0  0  0  0  0  0
   -1.4388   23.5668    9.4272 C   0  0  0  0  0  0  0  0  0  0  0  0
   -0.1342   27.8650    8.9403 C   0  0  0  0  0  0  0  0  0  0  0  0
   -0.1928   28.9729    7.9308 N   0  0  0  0  0  0  0  0  0  0  0  0
 27 28  1  0  0  0
 28 26  1  0  0  0
 26 24  1  0  0  0
 24 25  2  0  0  0
 24 23  1  0  0  0
 23 29  1  0  0  0
 29 30  3  0  0  0
 23 21  1  0  0  0
 21 22  2  0  0  0
 21  1  1  0  0  0
  1  2  2  0  0  0
  2  3  1  0  0  0
  3  4  2  0  0  0
  4  5  1  0  0  0
  5  6  2  0  0  0
  4  7  1  0  0  0
  7  8  1  0  0  0
  8  9  2  0  0  0
 10  8  1  0  0  0
 10 11  1  0  0  0
 11 12  1  0  0  0
 13 12  1  0  0  0
 13 14  1  0  0  0
 14 15  1  0  0  0
 15 16  2  0  0  0
 13 17  1  0  0  0
 17 18  1  0  0  0
 18 19  1  0  0  0
 17 20  1  0  0  0
  6  1  1  0  0  0
 15  7  1  0  0  0
 14 10  1  0  0  0
 18 11  1  0  0  0
M  END
> <minimizedAffinity>
-7.67126

$$$$



 31 33  0  0  0  0  0  0  0  0999 V2000
   -4.1212   25.5950   15.1674 C   0  0  0  0  0  0  0  0  0  0  0  0
   -3.4037   24.2969   15.3907 C   0  0  0  0  0  0  0  0  0  0  0  0
   -1.9057   24.2709   15.4631 C   0  0  0  0  0  0  0  0  0  0  0  0
   -1.1253   25.5429   15.3121 C   0  0  0  0  0  0  0  0  0  0  0  0
   -1.8428   26.8411   15.0888 C   0  0  0  0  0  0  0  0  0  0  0  0
   -3.3408   26.8671   15.0164 C   0  0  0  0  0  0  0  0  0  0  0  0
   -6.3429   24.6731   14.1853 N   0  0  0  0  0  0  0  0  0  0  0  0
   -5.6193   25.6211   15.0950 C   0  0  0  0  0  0  0  0  0  0  0  0
   -6.3938   26.5954   15.9323 O   0  0  0  0  0  0  0  0  0  0  0  0
   -7.9623   22.8879   15.9715 C   0  0  0  0  0  0  0  0  0  0  0  0
   -8.6506   23.8066   15.0060 C   0  0  0  0  0  0  0  0  0  0  0  0
   -7.8409   24.6992   14.1129 N   0  0  0  0  0  0  0  0  0  0  0  0
  -10.1486   23.8327   14.9336 C   0  0  0  0  0  0  0  0  0  0  0  0
  -10.8881   22.6996   14.2860 C   0  0  0  0  0  0  0  0  0  0  0  0
  -12.3861   22.7257   14.2136 C   0  0  0  0  0  0  0  0  0  0  0  0
  -13.1447   23.8849   14.7887 C   0  0  0  0  0  0  0  0  0  0  0  0
  -12.4053   25.0180   15.4363 C   0  0  0  0  0  0  0  0  0  0  0  0
  -10.9072   24.9919   15.5087 C   0  0  0  0  0  0  0  0  0  0  0  0
  -14.6427   23.9111   14.7163 I   0  0  0  0  0  0  0  0  0  0  0  0
    0.3728   25.5168   15.3845 C   0  0  0  0  0  0  0  0  0  0  0  0
    1.1803   25.3026   14.1387 N   0  0  0  0  0  0  0  0  0  0  0  0
    0.6251   25.7096   12.8059 C   0  0  0  0  0  0  0  0  0  0  0  0
    0.5750   27.1596   12.4254 C   0  0  0  0  0  0  0  0  0  0  0  0
    0.0199   27.5665   11.0926 C   0  0  0  0  0  0  0  0  0  0  0  0
   -0.4851   26.5233   10.1404 C   0  0  0  0  0  0  0  0  0  0  0  0
   -0.4349   25.0733   10.5209 C   0  0  0  0  0  0  0  0  0  0  0  0
    0.1202   24.6664   11.8536 C   0  0  0  0  0  0  0  0  0  0  0  0
    2.5429   24.6815   14.2256 S   0  0  0  0  0  0  0  0  0  0  0  0
    1.9157   23.3344   14.4302 O   0  0  0  0  0  0  0  0  0  0  0  0
    3.1700   26.0287   14.0210 O   0  0  0  0  0  0  0  0  0  0  0  0
    3.9055   24.0604   14.3125 C   0  0  0  0  0  0  0  0  0  0  0  0
 10 11  1  0  0  0
 11 12  2  0  0  0
 12  7  1  0  0  0
  7  8  1  0  0  0
  8  9  2  0  0  0
  8  1  1  0  0  0
  1  2  2  0  0  0
  2  3  1  0  0  0
  3  4  2  0  0  0
  4  5  1  0  0  0
  5  6  2  0  0  0
  4 20  1  0  0  0
 20 21  1  0  0  0
 21 22  1  0  0  0
 22 23  2  0  0  0
 23 24  1  0  0  0
 24 25  2  0  0  0
 25 26  1  0  0  0
 26 27  2  0  0  0
 21 28  1  0  0  0
 28 29  2  0  0  0
 28 30  2  0  0  0
 28 31  1  0  0  0
 11 13  1  0  0  0
 13 14  2  0  0  0
 14 15  1  0  0  0
 15 16  2  0  0  0
 16 17  1  0  0  0
 17 18  2  0  0  0
 16 19  1  0  0  0
  6  1  1  0  0  0
 27 22  1  0  0  0
 18 13  1  0  0  0
M  END
> <minimizedAffinity>
-6.60057

$$$$



 36 40  0  0  0  0  0  0  0  0999 V2000
   -1.7372   23.5830   13.1108 N   0  0  0  0  0  0  0  0  0  0  0  0
   -0.4764   23.3502   13.8894 C   0  0  0  0  0  0  0  0  0  0  0  0
   -0.1664   22.1438   14.7253 N   0  0  0  0  0  0  0  0  0  0  0  0
    1.1974   22.3310   15.3214 S   0  0  0  0  0  0  0  0  0  0  0  0
    0.9383   20.9895   15.9404 O   0  0  0  0  0  0  0  0  0  0  0  0
    2.5070   22.2376   16.0469 O   0  0  0  0  0  0  0  0  0  0  0  0
    1.7302   23.6530   14.8539 C   0  0  0  0  0  0  0  0  0  0  0  0
    0.6957   24.2829   13.9689 C   0  0  0  0  0  0  0  0  0  0  0  0
    0.9547   25.6244   13.3498 C   0  0  0  0  0  0  0  0  0  0  0  0
    2.2481   26.3360   13.6156 C   0  0  0  0  0  0  0  0  0  0  0  0
    3.2826   25.7060   14.5006 C   0  0  0  0  0  0  0  0  0  0  0  0
    3.0236   24.3646   15.1197 C   0  0  0  0  0  0  0  0  0  0  0  0
   -3.0360   23.7917   13.8315 C   0  0  0  0  0  0  0  0  0  0  0  0
   -4.1708   22.8327   13.6252 C   0  0  0  0  0  0  0  0  0  0  0  0
   -5.4696   23.0415   14.3459 C   0  0  0  0  0  0  0  0  0  0  0  0
   -5.6337   24.2093   15.2729 C   0  0  0  0  0  0  0  0  0  0  0  0
   -4.4989   25.1682   15.4793 C   0  0  0  0  0  0  0  0  0  0  0  0
   -3.2000   24.9595   14.7586 C   0  0  0  0  0  0  0  0  0  0  0  0
   -2.0652   25.9185   14.9649 Cl  0  0  0  0  0  0  0  0  0  0  0  0
   -1.6991   23.6070   11.6115 C   0  0  0  0  0  0  0  0  0  0  0  0
   -1.3783   24.8821   10.8897 C   0  0  0  0  0  0  0  0  0  0  0  0
   -2.3409   25.4357    9.8812 O   0  0  0  0  0  0  0  0  0  0  0  0
   -3.1535   26.6530   10.2095 C   0  0  0  0  0  0  0  0  0  0  0  0
   -3.7548   27.4731    9.1068 O   0  0  0  0  0  0  0  0  0  0  0  0
   -3.3648   27.0503   11.6404 C   0  0  0  0  0  0  0  0  0  0  0  0
   -8.2431   28.4166   15.7738 C   0  0  0  0  0  0  0  0  0  0  0  0
   -9.1909   27.3668   15.2743 C   0  0  0  0  0  0  0  0  0  0  0  0
   -8.7839   26.4636   14.1479 C   0  0  0  0  0  0  0  0  0  0  0  0
   -7.4292   26.6103   13.5211 C   0  0  0  0  0  0  0  0  0  0  0  0
   -6.4814   27.6601   14.0205 C   0  0  0  0  0  0  0  0  0  0  0  0
   -6.8883   28.5633   15.1469 C   0  0  0  0  0  0  0  0  0  0  0  0
   -5.1265   27.8068   13.3936 C   0  0  0  0  0  0  0  0  0  0  0  0
   -4.1787   28.8566   13.8931 O   0  0  0  0  0  0  0  0  0  0  0  0
   -4.7195   26.9036   12.2673 N   0  0  0  0  0  0  0  0  0  0  0  0
   -5.6674   25.8538   11.7678 C   0  0  0  0  0  0  0  0  0  0  0  0
   -7.0222   25.7071   12.3947 N   0  0  0  0  0  0  0  0  0  0  0  0
 26 27  2  0  0  0
 27 28  1  0  0  0
 28 29  2  0  0  0
 29 30  1  0  0  0
 30 31  2  0  0  0
 30 32  1  0  0  0
 32 33  2  0  0  0
 32 34  1  0  0  0
 34 35  1  0  0  0
 35 36  2  0  0  0
 34 25  1  0  0  0
 25 23  1  0  0  0
 23 24  2  0  0  0
 23 22  1  0  0  0
 22 21  1  0  0  0
 21 20  1  0  0  0
 20  1  1  0  0  0
  1 13  1  0  0  0
 13 14  2  0  0  0
 14 15  1  0  0  0
 15 16  2  0  0  0
 16 17  1  0  0  0
 17 18  2  0  0  0
 18 19  1  0  0  0
  1  2  1  0  0  0
  2  3  2  0  0  0
  3  4  1  0  0  0
  4  5  2  0  0  0
  4  6  2  0  0  0
  4  7  1  0  0  0
  7  8  2  0  0  0
  8  9  1  0  0  0
  9 10  2  0  0  0
 10 11  1  0  0  0
 11 12  2  0  0  0
 31 26  1  0  0  0
 36 29  1  0  0  0
 18 13  1  0  0  0
  8  2  1  0  0  0
 12  7  1  0  0  0
M  END
> <minimizedAffinity>
-9.28919

$$$$



 31 33  0  0  0  0  0  0  0  0999 V2000
   -5.9841   26.3624   15.6874 C   0  0  0  0  0  0  0  0  0  0  0  0
   -5.1514   25.2750   15.0756 C   0  0  0  0  0  0  0  0  0  0  0  0
   -3.6561   25.3929   15.0625 C   0  0  0  0  0  0  0  0  0  0  0  0
   -2.8234   24.3056   14.4507 N   0  0  0  0  0  0  0  0  0  0  0  0
   -3.4859   23.1003   13.8521 C   0  0  0  0  0  0  0  0  0  0  0  0
   -4.9812   22.9824   13.8652 C   0  0  0  0  0  0  0  0  0  0  0  0
   -5.8139   24.0698   14.4770 N   0  0  0  0  0  0  0  0  0  0  0  0
   -7.3093   23.9518   14.4901 S   0  0  0  0  0  0  0  0  0  0  0  0
   -7.2438   23.2706   15.8248 O   0  0  0  0  0  0  0  0  0  0  0  0
   -7.3747   24.6331   13.1553 O   0  0  0  0  0  0  0  0  0  0  0  0
   -8.8045   23.8339   14.5032 C   0  0  0  0  0  0  0  0  0  0  0  0
   -9.4650   22.6068   13.9483 C   0  0  0  0  0  0  0  0  0  0  0  0
  -10.9603   22.4888   13.9614 C   0  0  0  0  0  0  0  0  0  0  0  0
  -11.7951   23.5980   14.5296 C   0  0  0  0  0  0  0  0  0  0  0  0
  -11.1347   24.8251   15.0846 C   0  0  0  0  0  0  0  0  0  0  0  0
   -9.6394   24.9431   15.0714 C   0  0  0  0  0  0  0  0  0  0  0  0
  -11.6208   21.2617   13.4064 Br  0  0  0  0  0  0  0  0  0  0  0  0
   -8.9790   26.1702   15.6264 O   0  0  0  0  0  0  0  0  0  0  0  0
   -9.3831   27.5277   15.1328 C   0  0  0  0  0  0  0  0  0  0  0  0
   -1.3280   24.4235   14.4376 S   0  0  0  0  0  0  0  0  0  0  0  0
   -1.2791   23.6604   13.1472 O   0  0  0  0  0  0  0  0  0  0  0  0
   -1.3770   25.1866   15.7281 O   0  0  0  0  0  0  0  0  0  0  0  0
    0.1672   24.5415   14.4246 C   0  0  0  0  0  0  0  0  0  0  0  0
    1.0095   23.4724   15.0552 C   0  0  0  0  0  0  0  0  0  0  0  0
    2.5048   23.5904   15.0421 C   0  0  0  0  0  0  0  0  0  0  0  0
    3.1579   24.7775   14.3984 C   0  0  0  0  0  0  0  0  0  0  0  0
    2.3156   25.8465   13.7678 C   0  0  0  0  0  0  0  0  0  0  0  0
    0.8204   25.7286   13.7808 C   0  0  0  0  0  0  0  0  0  0  0  0
    3.3470   22.5214   15.6728 Br  0  0  0  0  0  0  0  0  0  0  0  0
   -0.0219   26.7977   13.1502 O   0  0  0  0  0  0  0  0  0  0  0  0
    0.0109   26.9992   11.6641 C   0  0  0  0  0  0  0  0  0  0  0  0
  2  1  1  0  0  0
  2  3  1  0  0  0
  3  4  1  0  0  0
  4  5  1  0  0  0
  5  6  1  0  0  0
  6  7  1  0  0  0
  7  8  1  0  0  0
  8  9  2  0  0  0
  8 10  2  0  0  0
  8 11  1  0  0  0
 11 12  2  0  0  0
 12 13  1  0  0  0
 13 14  2  0  0  0
 14 15  1  0  0  0
 15 16  2  0  0  0
 16 18  1  0  0  0
 18 19  1  0  0  0
 13 17  1  0  0  0
  4 20  1  0  0  0
 20 21  2  0  0  0
 20 22  2  0  0  0
 20 23  1  0  0  0
 23 24  2  0  0  0
 24 25  1  0  0  0
 25 26  2  0  0  0
 26 27  1  0  0  0
 27 28  2  0  0  0
 28 30  1  0  0  0
 30 31  1  0  0  0
 25 29  1  0  0  0
  7  2  1  0  0  0
 16 11  1  0  0  0
 28 23  1  0  0  0
M  END
> <minimizedAffinity>
-7.45278

$$$$



 37 40  0  0  0  0  0  0  0  0999 V2000
   -4.9940   25.2848   14.3200 N   0  0  0  0  0  0  0  0  0  0  0  0
   -4.4526   25.0435   12.9420 C   0  0  0  0  0  0  0  0  0  0  0  0
   -4.2467   23.6408   12.4521 O   0  0  0  0  0  0  0  0  0  0  0  0
   -5.3294   24.1233   15.2079 C   0  0  0  0  0  0  0  0  0  0  0  0
  -12.2417   21.3464   12.9146 C   0  0  0  0  0  0  0  0  0  0  0  0
  -11.3709   21.9463   13.9784 C   0  0  0  0  0  0  0  0  0  0  0  0
  -11.9334   22.2205   15.3416 C   0  0  0  0  0  0  0  0  0  0  0  0
  -11.0626   22.8204   16.4055 C   0  0  0  0  0  0  0  0  0  0  0  0
   -9.6293   23.1462   16.1061 C   0  0  0  0  0  0  0  0  0  0  0  0
   -9.0668   22.8719   14.7428 C   0  0  0  0  0  0  0  0  0  0  0  0
   -9.9376   22.2720   13.6790 C   0  0  0  0  0  0  0  0  0  0  0  0
   -7.6335   23.1976   14.4434 C   0  0  0  0  0  0  0  0  0  0  0  0
   -7.0711   22.9234   13.0802 O   0  0  0  0  0  0  0  0  0  0  0  0
   -6.7627   23.7976   15.5073 C   0  0  0  0  0  0  0  0  0  0  0  0
   -7.3252   24.0718   16.8705 C   0  0  0  0  0  0  0  0  0  0  0  0
   -8.7585   23.7461   17.1699 O   0  0  0  0  0  0  0  0  0  0  0  0
   -5.1999   26.6874   14.8099 C   0  0  0  0  0  0  0  0  0  0  0  0
   -6.5860   27.1893   15.0866 C   0  0  0  0  0  0  0  0  0  0  0  0
   -6.8477   28.0442   16.2910 C   0  0  0  0  0  0  0  0  0  0  0  0
   -8.2340   28.5461   16.5676 C   0  0  0  0  0  0  0  0  0  0  0  0
   -9.3585   28.1931   15.6398 C   0  0  0  0  0  0  0  0  0  0  0  0
   -9.0968   27.3382   14.4354 C   0  0  0  0  0  0  0  0  0  0  0  0
   -7.7106   26.8363   14.1587 C   0  0  0  0  0  0  0  0  0  0  0  0
   -4.1171   26.2049   12.0540 C   0  0  0  0  0  0  0  0  0  0  0  0
   -2.7813   26.2684   11.3747 N   0  0  0  0  0  0  0  0  0  0  0  0
   -2.6749   26.8040    9.9777 C   0  0  0  0  0  0  0  0  0  0  0  0
   -3.9045   27.2763    9.2599 O   0  0  0  0  0  0  0  0  0  0  0  0
   -1.3391   26.8674    9.2984 C   0  0  0  0  0  0  0  0  0  0  0  0
   -0.7492   28.1955    8.9263 C   0  0  0  0  0  0  0  0  0  0  0  0
    0.5867   28.2589    8.2470 C   0  0  0  0  0  0  0  0  0  0  0  0
    1.3327   26.9943    7.9398 C   0  0  0  0  0  0  0  0  0  0  0  0
    0.7428   25.6663    8.3120 C   0  0  0  0  0  0  0  0  0  0  0  0
   -0.5931   25.6029    8.9912 C   0  0  0  0  0  0  0  0  0  0  0  0
    1.4888   24.4018    8.0048 Br  0  0  0  0  0  0  0  0  0  0  0  0
   -1.5517   25.7961   12.0925 C   0  0  0  0  0  0  0  0  0  0  0  0
   -0.8226   26.7223   13.0202 C   0  0  0  0  0  0  0  0  0  0  0  0
    0.5355   27.2398   12.6488 C   0  0  0  0  0  0  0  0  0  0  0  0
  5  6  1  0  0  0
  6  7  2  0  0  0
  7  8  1  0  0  0
  8  9  2  0  0  0
  9 10  1  0  0  0
 10 11  2  0  0  0
 10 12  1  0  0  0
 12 13  2  0  0  0
 12 14  1  0  0  0
 14 15  2  0  0  0
 15 16  1  0  0  0
 14  4  1  0  0  0
  4  1  1  0  0  0
  1 17  1  0  0  0
 17 18  1  0  0  0
 18 19  2  0  0  0
 19 20  1  0  0  0
 20 21  2  0  0  0
 21 22  1  0  0  0
 22 23  2  0  0  0
  1  2  1  0  0  0
  2  3  2  0  0  0
  2 24  1  0  0  0
 24 25  1  0  0  0
 25 35  1  0  0  0
 35 36  1  0  0  0
 36 37  2  0  0  0
 25 26  1  0  0  0
 26 27  2  0  0  0
 26 28  1  0  0  0
 28 29  2  0  0  0
 29 30  1  0  0  0
 30 31  2  0  0  0
 31 32  1  0  0  0
 32 33  2  0  0  0
 32 34  1  0  0  0
 11  6  1  0  0  0
 16  9  1  0  0  0
 23 18  1  0  0  0
 33 28  1  0  0  0
M  END
> <minimizedAffinity>
-10.43191

$$$$



 40 44  0  0  0  0  0  0  0  0999 V2000
  -11.3952   21.1718   13.7388 C   0  0  0  0  0  0  0  0  0  0  0  0
  -10.7035   22.4385   14.1474 C   0  0  0  0  0  0  0  0  0  0  0  0
  -11.4071   23.4261   15.0303 C   0  0  0  0  0  0  0  0  0  0  0  0
  -10.7153   24.6928   15.4389 C   0  0  0  0  0  0  0  0  0  0  0  0
   -9.3199   24.9719   14.9647 C   0  0  0  0  0  0  0  0  0  0  0  0
   -8.6163   23.9843   14.0818 C   0  0  0  0  0  0  0  0  0  0  0  0
   -9.3081   22.7176   13.6732 C   0  0  0  0  0  0  0  0  0  0  0  0
   -7.2209   24.2634   13.6074 C   0  0  0  0  0  0  0  0  0  0  0  0
   -6.5173   23.2758   12.7245 O   0  0  0  0  0  0  0  0  0  0  0  0
   -6.5291   25.5301   14.0160 C   0  0  0  0  0  0  0  0  0  0  0  0
   -7.2328   26.5177   14.8990 C   0  0  0  0  0  0  0  0  0  0  0  0
   -8.6282   26.2386   15.3733 O   0  0  0  0  0  0  0  0  0  0  0  0
   -6.3042   27.6716   15.1357 C   0  0  0  0  0  0  0  0  0  0  0  0
   -6.6010   28.8867   15.9637 O   0  0  0  0  0  0  0  0  0  0  0  0
   -5.0266   27.3972   14.3992 N   0  0  0  0  0  0  0  0  0  0  0  0
   -5.1656   26.0737   13.7072 C   0  0  0  0  0  0  0  0  0  0  0  0
   -4.1241   25.4102   12.8557 C   0  0  0  0  0  0  0  0  0  0  0  0
   -3.3208   24.2693   13.4062 C   0  0  0  0  0  0  0  0  0  0  0  0
   -2.2792   23.6058   12.5546 C   0  0  0  0  0  0  0  0  0  0  0  0
   -2.0410   24.0832   11.1528 C   0  0  0  0  0  0  0  0  0  0  0  0
   -2.8444   25.2242   10.6024 C   0  0  0  0  0  0  0  0  0  0  0  0
   -3.8859   25.8876   11.4538 C   0  0  0  0  0  0  0  0  0  0  0  0
   -2.6062   25.7016    9.2005 O   0  0  0  0  0  0  0  0  0  0  0  0
   -3.0151   27.0883    8.8007 C   0  0  0  0  0  0  0  0  0  0  0  0
   -0.9995   23.4197   10.3013 O   0  0  0  0  0  0  0  0  0  0  0  0
   -1.3553   22.9241    8.9310 C   0  0  0  0  0  0  0  0  0  0  0  0
   -1.4759   22.4649   13.1051 O   0  0  0  0  0  0  0  0  0  0  0  0
   -1.0777   22.4570   14.5512 C   0  0  0  0  0  0  0  0  0  0  0  0
   -3.8216   28.2897   14.3612 C   0  0  0  0  0  0  0  0  0  0  0  0
   -2.6349   27.9848   15.2266 C   0  0  0  0  0  0  0  0  0  0  0  0
   -1.5088   27.1525   14.6889 C   0  0  0  0  0  0  0  0  0  0  0  0
   -0.8158   26.1636   15.5788 C   0  0  0  0  0  0  0  0  0  0  0  0
    0.3104   25.3313   15.0411 C   0  0  0  0  0  0  0  0  0  0  0  0
    0.7436   25.4880   13.6136 C   0  0  0  0  0  0  0  0  0  0  0  0
    0.0506   26.4769   12.7238 C   0  0  0  0  0  0  0  0  0  0  0  0
   -1.0755   27.3092   13.2614 C   0  0  0  0  0  0  0  0  0  0  0  0
    0.4839   26.6336   11.2963 O   0  0  0  0  0  0  0  0  0  0  0  0
   -0.1100   27.7181   10.4470 C   0  0  0  0  0  0  0  0  0  0  0  0
    1.8697   24.6557   13.0760 O   0  0  0  0  0  0  0  0  0  0  0  0
    3.0069   24.2637   13.9722 C   0  0  0  0  0  0  0  0  0  0  0  0
  1  2  1  0  0  0
  2  3  2  0  0  0
  3  4  1  0  0  0
  4  5  2  0  0  0
  5  6  1  0  0  0
  6  7  2  0  0  0
  6  8  1  0  0  0
  8  9  2  0  0  0
  8 10  1  0  0  0
 10 11  2  0  0  0
 11 12  1  0  0  0
 11 13  1  0  0  0
 13 14  2  0  0  0
 13 15  1  0  0  0
 15 16  1  0  0  0
 16 17  1  0  0  0
 17 18  2  0  0  0
 18 19  1  0  0  0
 19 20  2  0  0  0
 20 21  1  0  0  0
 21 22  2  0  0  0
 21 23  1  0  0  0
 23 24  1  0  0  0
 20 25  1  0  0  0
 25 26  1  0  0  0
 19 27  1  0  0  0
 27 28  1  0  0  0
 15 29  1  0  0  0
 29 30  1  0  0  0
 30 31  1  0  0  0
 31 32  2  0  0  0
 32 33  1  0  0  0
 33 34  2  0  0  0
 34 35  1  0  0  0
 35 36  2  0  0  0
 35 37  1  0  0  0
 37 38  1  0  0  0
 34 39  1  0  0  0
 39 40  1  0  0  0
  7  2  1  0  0  0
 12  5  1  0  0  0
 16 10  1  0  0  0
 22 17  1  0  0  0
 36 31  1  0  0  0
M  END
> <minimizedAffinity>
-4.50888

$$$$



 35 38  0  0  0  0  0  0  0  0999 V2000
   -1.9687   26.0512   11.8668 N   0  0  0  0  0  0  0  0  0  0  0  0
   -2.1373   25.2140   13.0999 C   0  0  0  0  0  0  0  0  0  0  0  0
   -3.6034   24.9612   13.2917 C   0  0  0  0  0  0  0  0  0  0  0  0
   -4.3620   24.1989   14.3373 C   0  0  0  0  0  0  0  0  0  0  0  0
   -3.6246   23.5180   15.4519 O   0  0  0  0  0  0  0  0  0  0  0  0
   -5.8583   24.1176   14.2683 C   0  0  0  0  0  0  0  0  0  0  0  0
   -6.6170   23.3553   15.3138 C   0  0  0  0  0  0  0  0  0  0  0  0
   -8.1131   23.2739   15.2448 C   0  0  0  0  0  0  0  0  0  0  0  0
   -8.8506   23.9549   14.1301 C   0  0  0  0  0  0  0  0  0  0  0  0
   -8.0919   24.7171   13.0845 C   0  0  0  0  0  0  0  0  0  0  0  0
   -6.5958   24.7985   13.1536 C   0  0  0  0  0  0  0  0  0  0  0  0
   -5.8370   25.5608   12.1080 O   0  0  0  0  0  0  0  0  0  0  0  0
   -4.3408   25.6421   12.1771 C   0  0  0  0  0  0  0  0  0  0  0  0
   -3.3306   26.3158   11.2964 C   0  0  0  0  0  0  0  0  0  0  0  0
   -3.6297   27.1139   10.0621 O   0  0  0  0  0  0  0  0  0  0  0  0
   -8.8719   22.5116   16.2904 Br  0  0  0  0  0  0  0  0  0  0  0  0
   -1.0336   24.7169   13.9858 C   0  0  0  0  0  0  0  0  0  0  0  0
    0.1733   25.5728   14.2324 C   0  0  0  0  0  0  0  0  0  0  0  0
    1.2770   25.0758   15.1183 C   0  0  0  0  0  0  0  0  0  0  0  0
    1.1738   23.7228   15.7576 C   0  0  0  0  0  0  0  0  0  0  0  0
   -0.0331   22.8669   15.5111 C   0  0  0  0  0  0  0  0  0  0  0  0
   -1.1369   23.3640   14.6252 C   0  0  0  0  0  0  0  0  0  0  0  0
   -0.1364   21.5139   16.1504 O   0  0  0  0  0  0  0  0  0  0  0  0
    0.7294   20.3882   15.6676 C   0  0  0  0  0  0  0  0  0  0  0  0
    2.2775   23.2257   16.6435 O   0  0  0  0  0  0  0  0  0  0  0  0
    3.5160   22.6341   16.0385 C   0  0  0  0  0  0  0  0  0  0  0  0
    2.4839   25.9317   15.3647 O   0  0  0  0  0  0  0  0  0  0  0  0
    3.6739   25.8296   14.4573 C   0  0  0  0  0  0  0  0  0  0  0  0
   -0.6668   26.5383   11.3030 C   0  0  0  0  0  0  0  0  0  0  0  0
    0.0011   25.7798   10.1946 C   0  0  0  0  0  0  0  0  0  0  0  0
   -0.6458   25.7012    8.8436 N   0  0  0  0  0  0  0  0  0  0  0  0
   -1.5477   23.2734    9.0496 C   0  0  0  0  0  0  0  0  0  0  0  0
   -0.9313   24.3646    8.2254 C   0  0  0  0  0  0  0  0  0  0  0  0
   -1.0071   26.9591    8.1107 C   0  0  0  0  0  0  0  0  0  0  0  0
    0.0138   28.0438    7.9340 C   0  0  0  0  0  0  0  0  0  0  0  0
 32 33  1  0  0  0
 33 31  1  0  0  0
 31 34  1  0  0  0
 34 35  1  0  0  0
 31 30  1  0  0  0
 30 29  1  0  0  0
 29  1  1  0  0  0
  1  2  1  0  0  0
  2  3  1  0  0  0
  3  4  1  0  0  0
  4  5  2  0  0  0
  4  6  1  0  0  0
  6  7  2  0  0  0
  7  8  1  0  0  0
  8  9  2  0  0  0
  9 10  1  0  0  0
 10 11  2  0  0  0
 11 12  1  0  0  0
 12 13  1  0  0  0
 13 14  1  0  0  0
 14 15  2  0  0  0
  8 16  1  0  0  0
  2 17  1  0  0  0
 17 18  2  0  0  0
 18 19  1  0  0  0
 19 20  2  0  0  0
 20 21  1  0  0  0
 21 22  2  0  0  0
 21 23  1  0  0  0
 23 24  1  0  0  0
 20 25  1  0  0  0
 25 26  1  0  0  0
 19 27  1  0  0  0
 27 28  1  0  0  0
 14  1  1  0  0  0
 13  3  2  0  0  0
 11  6  1  0  0  0
 22 17  1  0  0  0
M  END
> <minimizedAffinity>
-5.61700

$$$$



 37 41  0  0  0  0  0  0  0  0999 V2000
   -6.3008   27.8486   13.5207 S   0  0  0  0  0  0  0  0  0  0  0  0
   -7.5202   27.4081   14.2751 C   0  0  0  0  0  0  0  0  0  0  0  0
   -8.3156   28.2460   15.2317 N   0  0  0  0  0  0  0  0  0  0  0  0
   -9.4453   27.4082   15.7532 N   0  0  0  0  0  0  0  0  0  0  0  0
   -9.3480   26.0524   15.1188 C   0  0  0  0  0  0  0  0  0  0  0  0
   -8.1582   26.0523   14.2053 N   0  0  0  0  0  0  0  0  0  0  0  0
  -10.2773   24.8991   15.3563 C   0  0  0  0  0  0  0  0  0  0  0  0
   -9.7989   23.6932   16.1091 C   0  0  0  0  0  0  0  0  0  0  0  0
  -10.7282   22.5399   16.3466 C   0  0  0  0  0  0  0  0  0  0  0  0
  -12.1359   22.5926   15.8311 C   0  0  0  0  0  0  0  0  0  0  0  0
  -12.6142   23.7986   15.0783 C   0  0  0  0  0  0  0  0  0  0  0  0
  -11.6849   24.9519   14.8408 C   0  0  0  0  0  0  0  0  0  0  0  0
  -14.0220   23.8513   14.5628 C   0  0  0  0  0  0  0  0  0  0  0  0
   -7.6889   24.8990   13.3689 C   0  0  0  0  0  0  0  0  0  0  0  0
   -6.4319   24.1679   13.7372 C   0  0  0  0  0  0  0  0  0  0  0  0
   -5.7910   24.1439   15.0931 C   0  0  0  0  0  0  0  0  0  0  0  0
   -4.5581   23.2937   15.0081 C   0  0  0  0  0  0  0  0  0  0  0  0
   -4.4372   22.7922   13.5996 C   0  0  0  0  0  0  0  0  0  0  0  0
   -5.5952   23.3325   12.8142 O   0  0  0  0  0  0  0  0  0  0  0  0
   -5.0200   28.1142   14.2547 C   0  0  0  0  0  0  0  0  0  0  0  0
   -3.4646   26.4455   12.8615 N   0  0  0  0  0  0  0  0  0  0  0  0
   -2.2590   25.6093   13.1738 C   0  0  0  0  0  0  0  0  0  0  0  0
   -1.4310   24.6871   12.3290 C   0  0  0  0  0  0  0  0  0  0  0  0
   -0.2578   23.9708   12.9293 C   0  0  0  0  0  0  0  0  0  0  0  0
    0.0873   24.1767   14.3745 C   0  0  0  0  0  0  0  0  0  0  0  0
   -0.7408   25.0989   15.2193 C   0  0  0  0  0  0  0  0  0  0  0  0
   -1.9139   25.8152   14.6190 C   0  0  0  0  0  0  0  0  0  0  0  0
   -2.9062   26.7786   15.1998 N   0  0  0  0  0  0  0  0  0  0  0  0
   -3.8646   27.1681   14.1136 C   0  0  0  0  0  0  0  0  0  0  0  0
    1.2606   23.4603   14.9748 S   0  0  0  0  0  0  0  0  0  0  0  0
    2.1309   23.9464   13.8541 O   0  0  0  0  0  0  0  0  0  0  0  0
    0.3902   22.9741   16.0956 O   0  0  0  0  0  0  0  0  0  0  0  0
    2.4337   22.7439   15.5752 N   0  0  0  0  0  0  0  0  0  0  0  0
    2.6261   21.2777   15.3236 C   0  0  0  0  0  0  0  0  0  0  0  0
    3.4145   23.4937   16.4272 C   0  0  0  0  0  0  0  0  0  0  0  0
   -3.3561   26.8678   10.3002 C   0  0  0  0  0  0  0  0  0  0  0  0
   -4.1498   26.5420   11.5307 C   0  0  0  0  0  0  0  0  0  0  0  0
 36 37  1  0  0  0
 37 21  1  0  0  0
 21 22  1  0  0  0
 22 23  2  0  0  0
 23 24  1  0  0  0
 24 25  2  0  0  0
 25 26  1  0  0  0
 26 27  2  0  0  0
 27 28  1  0  0  0
 28 29  2  0  0  0
 29 20  1  0  0  0
 20  1  1  0  0  0
  1  2  1  0  0  0
  2  3  2  0  0  0
  3  4  1  0  0  0
  4  5  2  0  0  0
  5  6  1  0  0  0
  6 14  1  0  0  0
 14 15  1  0  0  0
 15 16  2  0  0  0
 16 17  1  0  0  0
 17 18  2  0  0  0
 18 19  1  0  0  0
  5  7  1  0  0  0
  7  8  2  0  0  0
  8  9  1  0  0  0
  9 10  2  0  0  0
 10 11  1  0  0  0
 11 12  2  0  0  0
 11 13  1  0  0  0
 25 30  1  0  0  0
 30 31  2  0  0  0
 30 32  2  0  0  0
 30 33  1  0  0  0
 33 34  1  0  0  0
 33 35  1  0  0  0
 29 21  1  0  0  0
 27 22  1  0  0  0
  6  2  1  0  0  0
 19 15  1  0  0  0
 12  7  1  0  0  0
M  END
> <minimizedAffinity>
-8.23870

$$$$



 38 42  0  0  0  0  0  0  0  0999 V2000
    0.6762   20.7136   16.4410 C   0  0  0  0  0  0  0  0  0  0  0  0
    1.4216   21.7980   15.7210 C   0  0  0  0  0  0  0  0  0  0  0  0
    2.9212   21.7835   15.6892 C   0  0  0  0  0  0  0  0  0  0  0  0
    3.6666   22.8680   14.9692 C   0  0  0  0  0  0  0  0  0  0  0  0
    2.9124   23.9669   14.2811 C   0  0  0  0  0  0  0  0  0  0  0  0
    1.4128   23.9814   14.3130 N   0  0  0  0  0  0  0  0  0  0  0  0
    0.6674   22.8970   15.0330 C   0  0  0  0  0  0  0  0  0  0  0  0
   -0.8322   22.9115   15.0648 N   0  0  0  0  0  0  0  0  0  0  0  0
   -1.5864   24.0104   14.3768 C   0  0  0  0  0  0  0  0  0  0  0  0
   -0.8410   25.0949   13.6568 C   0  0  0  0  0  0  0  0  0  0  0  0
    0.6586   25.0804   13.6249 C   0  0  0  0  0  0  0  0  0  0  0  0
    1.3863   25.8888   13.0835 O   0  0  0  0  0  0  0  0  0  0  0  0
   -1.5953   26.1939   12.9687 C   0  0  0  0  0  0  0  0  0  0  0  0
   -1.8061   26.1435   11.4845 C   0  0  0  0  0  0  0  0  0  0  0  0
   -1.3240   25.0637   10.5615 C   0  0  0  0  0  0  0  0  0  0  0  0
   -0.6957   24.0394   10.7413 O   0  0  0  0  0  0  0  0  0  0  0  0
   -1.7561   25.4170    9.1692 N   0  0  0  0  0  0  0  0  0  0  0  0
   -2.5052   26.7150    9.2316 C   0  0  0  0  0  0  0  0  0  0  0  0
   -3.1161   27.4371    8.0675 S   0  0  0  0  0  0  0  0  0  0  0  0
   -2.5362   27.1640   10.6625 S   0  0  0  0  0  0  0  0  0  0  0  0
   -1.4863   24.6132    7.9318 C   0  0  0  0  0  0  0  0  0  0  0  0
   -0.6077   23.3996    8.0025 C   0  0  0  0  0  0  0  0  0  0  0  0
    0.8833   23.5479    7.9321 O   0  0  0  0  0  0  0  0  0  0  0  0
    1.5136   24.8935    8.1376 C   0  0  0  0  0  0  0  0  0  0  0  0
   -3.0860   24.0250   14.4086 N   0  0  0  0  0  0  0  0  0  0  0  0
   -3.8616   22.9533   13.7016 C   0  0  0  0  0  0  0  0  0  0  0  0
   -5.3612   22.9677   13.7334 C   0  0  0  0  0  0  0  0  0  0  0  0
   -6.0851   24.0539   14.4723 N   0  0  0  0  0  0  0  0  0  0  0  0
   -5.3096   25.1256   15.1794 C   0  0  0  0  0  0  0  0  0  0  0  0
   -3.8100   25.1112   15.1475 C   0  0  0  0  0  0  0  0  0  0  0  0
   -7.5848   24.0685   14.5042 C   0  0  0  0  0  0  0  0  0  0  0  0
   -8.3207   25.3732   14.5819 C   0  0  0  0  0  0  0  0  0  0  0  0
   -9.8202   25.3878   14.6138 C   0  0  0  0  0  0  0  0  0  0  0  0
  -10.5839   24.0976   14.5679 C   0  0  0  0  0  0  0  0  0  0  0  0
   -9.8480   22.7928   14.4902 C   0  0  0  0  0  0  0  0  0  0  0  0
   -8.3485   22.7783   14.4583 C   0  0  0  0  0  0  0  0  0  0  0  0
  -12.0835   24.1121   14.5998 O   0  0  0  0  0  0  0  0  0  0  0  0
  -12.8558   22.9274   14.0997 C   0  0  0  0  0  0  0  0  0  0  0  0
  1  2  1  0  0  0
  2  3  2  0  0  0
  3  4  1  0  0  0
  4  5  2  0  0  0
  5  6  1  0  0  0
  6  7  1  0  0  0
  7  8  2  0  0  0
  8  9  1  0  0  0
  9 10  2  0  0  0
 10 11  1  0  0  0
 11 12  2  0  0  0
 10 13  1  0  0  0
 13 14  2  0  0  0
 14 15  1  0  0  0
 15 16  2  0  0  0
 15 17  1  0  0  0
 17 18  1  0  0  0
 18 19  2  0  0  0
 18 20  1  0  0  0
 17 21  1  0  0  0
 21 22  1  0  0  0
 22 23  1  0  0  0
 23 24  1  0  0  0
  9 25  1  0  0  0
 25 26  1  0  0  0
 26 27  1  0  0  0
 27 28  1  0  0  0
 28 29  1  0  0  0
 29 30  1  0  0  0
 28 31  1  0  0  0
 31 32  2  0  0  0
 32 33  1  0  0  0
 33 34  2  0  0  0
 34 35  1  0  0  0
 35 36  2  0  0  0
 34 37  1  0  0  0
 37 38  1  0  0  0
  7  2  1  0  0  0
 11  6  1  0  0  0
 20 14  1  0  0  0
 30 25  1  0  0  0
 36 31  1  0  0  0
M  END
> <minimizedAffinity>
-3.91784

$$$$



 43 48  0  0  0  0  0  0  0  0999 V2000
   -7.3563   25.6961   12.9443 C   0  0  0  0  0  0  0  0  0  0  0  0
   -6.0070   25.1609   13.3223 C   0  0  0  0  0  0  0  0  0  0  0  0
   -4.7114   25.4686   12.6321 C   0  0  0  0  0  0  0  0  0  0  0  0
   -4.5374   26.3657   11.4425 O   0  0  0  0  0  0  0  0  0  0  0  0
   -3.6201   24.7219   13.3402 N   0  0  0  0  0  0  0  0  0  0  0  0
   -4.2412   23.9526   14.4681 C   0  0  0  0  0  0  0  0  0  0  0  0
   -3.5148   23.0674   15.4371 S   0  0  0  0  0  0  0  0  0  0  0  0
   -5.7165   24.2240   14.4571 S   0  0  0  0  0  0  0  0  0  0  0  0
   -2.1633   24.7411   12.9831 C   0  0  0  0  0  0  0  0  0  0  0  0
   -1.5964   24.8093   11.5960 C   0  0  0  0  0  0  0  0  0  0  0  0
   -0.1005   24.8058   11.7060 N   0  0  0  0  0  0  0  0  0  0  0  0
    0.2573   24.7353   13.1610 N   0  0  0  0  0  0  0  0  0  0  0  0
   -1.0178   24.6953   13.9503 C   0  0  0  0  0  0  0  0  0  0  0  0
   -1.1277   24.6224   15.4445 O   0  0  0  0  0  0  0  0  0  0  0  0
    0.8679   24.8627   10.5618 C   0  0  0  0  0  0  0  0  0  0  0  0
   -2.3866   24.8704   10.3226 C   0  0  0  0  0  0  0  0  0  0  0  0
    1.6460   24.7094   13.7274 C   0  0  0  0  0  0  0  0  0  0  0  0
    2.2134   23.4287   14.2639 C   0  0  0  0  0  0  0  0  0  0  0  0
    3.6021   23.4028   14.8302 C   0  0  0  0  0  0  0  0  0  0  0  0
    4.4234   24.6576   14.8601 C   0  0  0  0  0  0  0  0  0  0  0  0
    3.8560   25.9383   14.3235 C   0  0  0  0  0  0  0  0  0  0  0  0
    2.4674   25.9642   13.7572 C   0  0  0  0  0  0  0  0  0  0  0  0
   -8.9951   25.8774   15.0482 C   0  0  0  0  0  0  0  0  0  0  0  0
   -8.5689   25.2975   13.7321 C   0  0  0  0  0  0  0  0  0  0  0  0
   -9.5683   24.2491   13.3420 C   0  0  0  0  0  0  0  0  0  0  0  0
  -10.6121   24.1810   14.4171 N   0  0  0  0  0  0  0  0  0  0  0  0
  -10.2579   25.1873   15.4716 N   0  0  0  0  0  0  0  0  0  0  0  0
   -6.8603   29.1180   17.3265 C   0  0  0  0  0  0  0  0  0  0  0  0
   -8.3590   29.0571   17.3361 C   0  0  0  0  0  0  0  0  0  0  0  0
   -9.0706   27.9769   16.5766 C   0  0  0  0  0  0  0  0  0  0  0  0
   -8.2835   26.9576   15.8076 C   0  0  0  0  0  0  0  0  0  0  0  0
   -6.7848   27.0185   15.7981 C   0  0  0  0  0  0  0  0  0  0  0  0
   -6.0732   28.0987   16.5575 C   0  0  0  0  0  0  0  0  0  0  0  0
   -4.5744   28.1595   16.5479 C   0  0  0  0  0  0  0  0  0  0  0  0
   -6.1486   30.1982   18.0859 O   0  0  0  0  0  0  0  0  0  0  0  0
   -4.1279   30.0031   19.7072 C   0  0  0  0  0  0  0  0  0  0  0  0
   -5.6042   29.9183   19.4553 C   0  0  0  0  0  0  0  0  0  0  0  0
  -11.8014   23.2670   14.4346 C   0  0  0  0  0  0  0  0  0  0  0  0
  -11.8450   22.0753   13.5247 C   0  0  0  0  0  0  0  0  0  0  0  0
  -13.0342   21.1614   13.5423 C   0  0  0  0  0  0  0  0  0  0  0  0
  -14.1799   21.4392   14.4698 C   0  0  0  0  0  0  0  0  0  0  0  0
  -14.1363   22.6308   15.3797 C   0  0  0  0  0  0  0  0  0  0  0  0
  -12.9471   23.5448   15.3621 C   0  0  0  0  0  0  0  0  0  0  0  0
 36 37  1  0  0  0
 37 35  1  0  0  0
 35 28  1  0  0  0
 28 29  2  0  0  0
 29 30  1  0  0  0
 30 31  2  0  0  0
 31 32  1  0  0  0
 32 33  2  0  0  0
 33 34  1  0  0  0
 31 23  1  0  0  0
 23 24  1  0  0  0
 24 25  2  0  0  0
 25 26  1  0  0  0
 26 27  1  0  0  0
 26 38  1  0  0  0
 38 39  2  0  0  0
 39 40  1  0  0  0
 40 41  2  0  0  0
 41 42  1  0  0  0
 42 43  2  0  0  0
 24  1  1  0  0  0
  1  2  2  0  0  0
  2  3  1  0  0  0
  3  4  2  0  0  0
  3  5  1  0  0  0
  5  6  1  0  0  0
  6  7  2  0  0  0
  6  8  1  0  0  0
  5  9  1  0  0  0
  9 10  2  0  0  0
 10 11  1  0  0  0
 11 12  1  0  0  0
 12 13  1  0  0  0
 13 14  2  0  0  0
 12 17  1  0  0  0
 17 18  2  0  0  0
 18 19  1  0  0  0
 19 20  2  0  0  0
 20 21  1  0  0  0
 21 22  2  0  0  0
 11 15  1  0  0  0
 10 16  1  0  0  0
 33 28  1  0  0  0
 27 23  2  0  0  0
 43 38  1  0  0  0
  8  2  1  0  0  0
 13  9  1  0  0  0
 22 17  1  0  0  0
M  END
> <minimizedAffinity>
-0.29160

$$$$



 26 28  0  0  0  0  0  0  0  0999 V2000
   -6.7852   27.3717   14.1777 C   0  0  0  0  0  0  0  0  0  0  0  0
   -6.7789   28.2065   15.4239 C   0  0  0  0  0  0  0  0  0  0  0  0
   -6.7726   29.0413   16.6701 Cl  0  0  0  0  0  0  0  0  0  0  0  0
   -8.2723   28.3263   15.3512 Cl  0  0  0  0  0  0  0  0  0  0  0  0
   -5.2855   28.0866   15.4967 Cl  0  0  0  0  0  0  0  0  0  0  0  0
   -5.4040   25.8462   12.5917 C   0  0  0  0  0  0  0  0  0  0  0  0
   -6.6045   24.9698   12.3894 O   0  0  0  0  0  0  0  0  0  0  0  0
   -5.4944   27.0472   13.4859 N   0  0  0  0  0  0  0  0  0  0  0  0
   -3.8155   23.4434   13.4302 C   0  0  0  0  0  0  0  0  0  0  0  0
   -3.3191   24.3202   12.3191 C   0  0  0  0  0  0  0  0  0  0  0  0
   -2.0283   23.9957   11.6272 C   0  0  0  0  0  0  0  0  0  0  0  0
   -1.5319   24.8725   10.5161 C   0  0  0  0  0  0  0  0  0  0  0  0
   -2.3261   26.0739   10.0968 C   0  0  0  0  0  0  0  0  0  0  0  0
   -3.6168   26.3985   10.7887 C   0  0  0  0  0  0  0  0  0  0  0  0
   -4.1133   25.5216   11.8999 C   0  0  0  0  0  0  0  0  0  0  0  0
   -8.0822   26.8614   13.6233 N   0  0  0  0  0  0  0  0  0  0  0  0
   -8.9055   25.8891   14.4151 C   0  0  0  0  0  0  0  0  0  0  0  0
  -10.3910   25.8279   14.2163 C   0  0  0  0  0  0  0  0  0  0  0  0
  -11.2142   24.8557   15.0080 C   0  0  0  0  0  0  0  0  0  0  0  0
  -10.5520   23.9445   15.9987 C   0  0  0  0  0  0  0  0  0  0  0  0
  -11.3753   22.9723   16.7904 C   0  0  0  0  0  0  0  0  0  0  0  0
  -10.7131   22.0612   17.7810 C   0  0  0  0  0  0  0  0  0  0  0  0
   -9.2276   22.1224   17.9799 C   0  0  0  0  0  0  0  0  0  0  0  0
   -8.4043   23.0946   17.1882 C   0  0  0  0  0  0  0  0  0  0  0  0
   -9.0665   24.0057   16.1976 C   0  0  0  0  0  0  0  0  0  0  0  0
   -8.2432   24.9780   15.4058 C   0  0  0  0  0  0  0  0  0  0  0  0
  9 10  1  0  0  0
 10 11  2  0  0  0
 11 12  1  0  0  0
 12 13  2  0  0  0
 13 14  1  0  0  0
 14 15  2  0  0  0
 15  6  1  0  0  0
  6  7  2  0  0  0
  6  8  1  0  0  0
  1  8  1  0  0  0
  1  2  1  0  0  0
  2  3  1  0  0  0
  2  4  1  0  0  0
  2  5  1  0  0  0
  1 16  1  0  0  0
 16 17  1  0  0  0
 17 18  2  0  0  0
 18 19  1  0  0  0
 19 20  2  0  0  0
 20 21  1  0  0  0
 21 22  2  0  0  0
 22 23  1  0  0  0
 23 24  2  0  0  0
 24 25  1  0  0  0
 25 26  2  0  0  0
 15 10  1  0  0  0
 26 17  1  0  0  0
 25 20  1  0  0  0
M  END
> <minimizedAffinity>
-9.63650

$$$$



 25 26  0  0  0  0  0  0  0  0999 V2000
   -1.1037   27.6611    9.4140 C   0  0  0  0  0  0  0  0  0  0  0  0
   -1.6318   27.4992   10.8085 N   0  0  0  0  0  0  0  0  0  0  0  0
   -3.0390   27.0286   11.0277 C   0  0  0  0  0  0  0  0  0  0  0  0
   -3.9183   26.7199    9.8522 O   0  0  0  0  0  0  0  0  0  0  0  0
   -3.5671   26.8666   12.4223 N   0  0  0  0  0  0  0  0  0  0  0  0
   -4.9745   26.3960   12.6414 C   0  0  0  0  0  0  0  0  0  0  0  0
   -5.4768   25.1757   11.9283 C   0  0  0  0  0  0  0  0  0  0  0  0
   -6.8841   24.7051   12.1474 C   0  0  0  0  0  0  0  0  0  0  0  0
   -7.7891   25.4548   13.0796 C   0  0  0  0  0  0  0  0  0  0  0  0
   -7.2867   26.6751   13.7927 C   0  0  0  0  0  0  0  0  0  0  0  0
   -5.8795   27.1457   13.5736 C   0  0  0  0  0  0  0  0  0  0  0  0
   -5.3771   28.3660   14.2867 C   0  0  0  0  0  0  0  0  0  0  0  0
   -8.1917   27.4248   14.7249 Cl  0  0  0  0  0  0  0  0  0  0  0  0
    0.3222   27.3111    9.1066 C   0  0  0  0  0  0  0  0  0  0  0  0
    1.1858   26.6876   10.1627 S   0  0  0  0  0  0  0  0  0  0  0  0
    1.0613   25.2238   10.4655 C   0  0  0  0  0  0  0  0  0  0  0  0
   -3.2748   23.2757   14.1265 C   0  0  0  0  0  0  0  0  0  0  0  0
   -2.1908   23.7627   13.2113 C   0  0  0  0  0  0  0  0  0  0  0  0
   -2.3116   23.5583   11.7302 C   0  0  0  0  0  0  0  0  0  0  0  0
   -1.2275   24.0453   10.8150 C   0  0  0  0  0  0  0  0  0  0  0  0
   -0.0227   24.7368   11.3807 C   0  0  0  0  0  0  0  0  0  0  0  0
    0.0981   24.9413   12.8618 C   0  0  0  0  0  0  0  0  0  0  0  0
   -0.9859   24.4542   13.7770 C   0  0  0  0  0  0  0  0  0  0  0  0
    1.3030   25.6328   13.4277 C   0  0  0  0  0  0  0  0  0  0  0  0
   -1.3484   23.8408    9.3338 C   0  0  0  0  0  0  0  0  0  0  0  0
 17 18  1  0  0  0
 18 19  2  0  0  0
 19 20  1  0  0  0
 20 21  2  0  0  0
 21 22  1  0  0  0
 22 23  2  0  0  0
 22 24  1  0  0  0
 21 16  1  0  0  0
 16 15  1  0  0  0
 15 14  1  0  0  0
 14  1  1  0  0  0
  1  2  1  0  0  0
  2  3  1  0  0  0
  3  4  2  0  0  0
  3  5  1  0  0  0
  5  6  1  0  0  0
  6  7  2  0  0  0
  7  8  1  0  0  0
  8  9  2  0  0  0
  9 10  1  0  0  0
 10 11  2  0  0  0
 11 12  1  0  0  0
 10 13  1  0  0  0
 20 25  1  0  0  0
 23 18  1  0  0  0
 11  6  1  0  0  0
M  END
> <minimizedAffinity>
-6.59346

$$$$



 25 27  0  0  0  0  0  0  0  0999 V2000
   -2.5693   24.3955   12.2989 C   0  0  0  0  0  0  0  0  0  0  0  0
    0.4191   23.5589   15.5576 C   0  0  0  0  0  0  0  0  0  0  0  0
   -1.0078   23.1255   15.7192 C   0  0  0  0  0  0  0  0  0  0  0  0
   -2.0039   23.4044   14.6330 C   0  0  0  0  0  0  0  0  0  0  0  0
   -1.5732   24.1166   13.3851 C   0  0  0  0  0  0  0  0  0  0  0  0
   -0.1463   24.5500   13.2235 C   0  0  0  0  0  0  0  0  0  0  0  0
    0.8498   24.2711   14.3098 C   0  0  0  0  0  0  0  0  0  0  0  0
   -2.1013   24.8766   10.9575 C   0  0  0  0  0  0  0  0  0  0  0  0
   -2.2282   26.3265   10.5945 C   0  0  0  0  0  0  0  0  0  0  0  0
   -1.7601   26.8076    9.2531 C   0  0  0  0  0  0  0  0  0  0  0  0
   -1.1651   25.8388    8.2746 C   0  0  0  0  0  0  0  0  0  0  0  0
   -1.0382   24.3890    8.6375 C   0  0  0  0  0  0  0  0  0  0  0  0
   -1.5062   23.9078    9.9790 C   0  0  0  0  0  0  0  0  0  0  0  0
   -4.0335   24.1933   12.5540 N   0  0  0  0  0  0  0  0  0  0  0  0
   -4.8234   25.2498   13.2681 C   0  0  0  0  0  0  0  0  0  0  0  0
   -4.1490   26.5086   13.7270 O   0  0  0  0  0  0  0  0  0  0  0  0
   -6.2876   25.0476   13.5232 N   0  0  0  0  0  0  0  0  0  0  0  0
   -7.0775   26.1041   14.2373 C   0  0  0  0  0  0  0  0  0  0  0  0
   -8.5668   26.1685   14.0701 C   0  0  0  0  0  0  0  0  0  0  0  0
   -9.3566   27.2251   14.7842 C   0  0  0  0  0  0  0  0  0  0  0  0
   -8.6571   28.2173   15.6653 C   0  0  0  0  0  0  0  0  0  0  0  0
   -7.1679   28.1528   15.8324 C   0  0  0  0  0  0  0  0  0  0  0  0
   -6.3781   27.0963   15.1184 C   0  0  0  0  0  0  0  0  0  0  0  0
   -6.4684   29.1450   16.7136 Cl  0  0  0  0  0  0  0  0  0  0  0  0
   -9.4469   29.2738   16.3794 Cl  0  0  0  0  0  0  0  0  0  0  0  0
  2  3  2  0  0  0
  3  4  1  0  0  0
  4  5  2  0  0  0
  5  6  1  0  0  0
  6  7  2  0  0  0
  5  1  1  0  0  0
  1  8  1  0  0  0
  8  9  2  0  0  0
  9 10  1  0  0  0
 10 11  2  0  0  0
 11 12  1  0  0  0
 12 13  2  0  0  0
  1 14  1  0  0  0
 14 15  1  0  0  0
 15 16  2  0  0  0
 15 17  1  0  0  0
 17 18  1  0  0  0
 18 19  2  0  0  0
 19 20  1  0  0  0
 20 21  2  0  0  0
 21 22  1  0  0  0
 22 23  2  0  0  0
 22 24  1  0  0  0
 21 25  1  0  0  0
  7  2  1  0  0  0
 13  8  1  0  0  0
 23 18  1  0  0  0
M  END
> <minimizedAffinity>
-8.74919

$$$$



 28 32  0  0  0  0  0  0  0  0999 V2000
   -9.6763   26.7903   14.7584 C   0  0  0  0  0  0  0  0  0  0  0  0
   -8.2742   26.6928   14.2342 C   0  0  0  0  0  0  0  0  0  0  0  0
   -7.3725   27.4248   15.1835 C   0  0  0  0  0  0  0  0  0  0  0  0
   -5.8913   27.6617   15.1798 C   0  0  0  0  0  0  0  0  0  0  0  0
   -5.2549   28.4484   16.2870 C   0  0  0  0  0  0  0  0  0  0  0  0
   -6.0996   28.9983   17.3979 C   0  0  0  0  0  0  0  0  0  0  0  0
   -7.5808   28.7614   17.4015 N   0  0  0  0  0  0  0  0  0  0  0  0
   -8.2172   27.9747   16.2943 C   0  0  0  0  0  0  0  0  0  0  0  0
   -9.6410   27.5826   16.0316 S   0  0  0  0  0  0  0  0  0  0  0  0
   -7.8486   25.9872   12.9808 N   0  0  0  0  0  0  0  0  0  0  0  0
   -5.0466   27.1117   14.0689 C   0  0  0  0  0  0  0  0  0  0  0  0
   -5.0051   25.6332   13.8196 C   0  0  0  0  0  0  0  0  0  0  0  0
   -4.1604   25.0833   12.7087 C   0  0  0  0  0  0  0  0  0  0  0  0
   -3.3572   26.0119   11.8471 C   0  0  0  0  0  0  0  0  0  0  0  0
   -3.3987   27.4905   12.0964 C   0  0  0  0  0  0  0  0  0  0  0  0
   -4.2434   28.0404   13.2073 C   0  0  0  0  0  0  0  0  0  0  0  0
   -2.5125   25.4621   10.7362 Cl  0  0  0  0  0  0  0  0  0  0  0  0
   -5.4631   29.7850   18.5052 C   0  0  0  0  0  0  0  0  0  0  0  0
   -5.1226   29.9423   19.9575 C   0  0  0  0  0  0  0  0  0  0  0  0
   -4.7014   30.9905   18.9706 C   0  0  0  0  0  0  0  0  0  0  0  0
  -10.8989   26.1993   14.1212 C   0  0  0  0  0  0  0  0  0  0  0  0
  -11.5473   26.8906   12.9585 O   0  0  0  0  0  0  0  0  0  0  0  0
  -12.6219   22.3528   15.6978 C   0  0  0  0  0  0  0  0  0  0  0  0
  -11.3979   22.9427   16.3336 C   0  0  0  0  0  0  0  0  0  0  0  0
  -10.8236   24.2248   15.8081 C   0  0  0  0  0  0  0  0  0  0  0  0
  -11.4732   24.9172   14.6467 C   0  0  0  0  0  0  0  0  0  0  0  0
  -12.6971   24.3274   14.0110 C   0  0  0  0  0  0  0  0  0  0  0  0
  -13.2714   23.0452   14.5365 C   0  0  0  0  0  0  0  0  0  0  0  0
 23 24  2  0  0  0
 24 25  1  0  0  0
 25 26  2  0  0  0
 26 27  1  0  0  0
 27 28  2  0  0  0
 26 21  1  0  0  0
 21 22  2  0  0  0
 21  1  1  0  0  0
  1  2  2  0  0  0
  2  3  1  0  0  0
  3  4  2  0  0  0
  4  5  1  0  0  0
  5  6  2  0  0  0
  6  7  1  0  0  0
  7  8  2  0  0  0
  8  9  1  0  0  0
  6 18  1  0  0  0
 18 19  1  0  0  0
 19 20  1  0  0  0
  4 11  1  0  0  0
 11 12  2  0  0  0
 12 13  1  0  0  0
 13 14  2  0  0  0
 14 15  1  0  0  0
 15 16  2  0  0  0
 14 17  1  0  0  0
  2 10  1  0  0  0
 28 23  1  0  0  0
  9  1  1  0  0  0
  8  3  1  0  0  0
 20 18  1  0  0  0
 16 11  1  0  0  0
M  END
> <minimizedAffinity>
-3.65472

$$$$



 30 34  0  0  0  0  0  0  0  0999 V2000
   -3.1575   25.6750   12.1376 C   0  0  0  0  0  0  0  0  0  0  0  0
   -2.7146   26.2855   10.8411 C   0  0  0  0  0  0  0  0  0  0  0  0
   -3.6136   26.8125    9.7621 C   0  0  0  0  0  0  0  0  0  0  0  0
   -2.7495   27.3289    8.6501 N   0  0  0  0  0  0  0  0  0  0  0  0
   -1.3165   27.1210    9.0417 C   0  0  0  0  0  0  0  0  0  0  0  0
   -1.2950   26.4761   10.3958 C   0  0  0  0  0  0  0  0  0  0  0  0
    0.0146   26.1459   11.0484 C   0  0  0  0  0  0  0  0  0  0  0  0
    1.3025   26.4605   10.3470 C   0  0  0  0  0  0  0  0  0  0  0  0
    1.2809   27.1053    8.9928 C   0  0  0  0  0  0  0  0  0  0  0  0
   -0.0286   27.4356    8.3402 C   0  0  0  0  0  0  0  0  0  0  0  0
   -2.3269   24.6079   12.7866 C   0  0  0  0  0  0  0  0  0  0  0  0
   -2.4353   23.1327   12.5372 C   0  0  0  0  0  0  0  0  0  0  0  0
   -1.4174   22.4416   13.3954 N   0  0  0  0  0  0  0  0  0  0  0  0
   -0.6801   23.4896   14.1751 C   0  0  0  0  0  0  0  0  0  0  0  0
   -1.2422   24.8284   13.7988 C   0  0  0  0  0  0  0  0  0  0  0  0
   -0.6937   26.0754   14.4266 C   0  0  0  0  0  0  0  0  0  0  0  0
    0.4170   25.9836   15.4306 C   0  0  0  0  0  0  0  0  0  0  0  0
    0.9791   24.6447   15.8069 C   0  0  0  0  0  0  0  0  0  0  0  0
    0.4305   23.3977   15.1791 C   0  0  0  0  0  0  0  0  0  0  0  0
   -6.9783   27.0450   14.0806 C   0  0  0  0  0  0  0  0  0  0  0  0
   -6.9605   25.7847   13.2673 C   0  0  0  0  0  0  0  0  0  0  0  0
   -5.6869   25.3281   12.6197 C   0  0  0  0  0  0  0  0  0  0  0  0
   -4.4312   26.1317   12.7853 C   0  0  0  0  0  0  0  0  0  0  0  0
   -4.4490   27.3919   13.5986 C   0  0  0  0  0  0  0  0  0  0  0  0
   -5.7226   27.8486   14.2462 C   0  0  0  0  0  0  0  0  0  0  0  0
   -8.2519   27.5017   14.7282 N   0  0  0  0  0  0  0  0  0  0  0  0
   -9.9097   25.5154   14.9662 C   0  0  0  0  0  0  0  0  0  0  0  0
   -9.5523   26.8451   14.3709 C   0  0  0  0  0  0  0  0  0  0  0  0
   -8.2251   28.6149   15.7332 C   0  0  0  0  0  0  0  0  0  0  0  0
   -8.7062   28.3733   17.1332 C   0  0  0  0  0  0  0  0  0  0  0  0
 27 28  1  0  0  0
 28 26  1  0  0  0
 26 29  1  0  0  0
 29 30  1  0  0  0
 26 20  1  0  0  0
 20 21  2  0  0  0
 21 22  1  0  0  0
 22 23  2  0  0  0
 23 24  1  0  0  0
 24 25  2  0  0  0
 23  1  1  0  0  0
  1  2  1  0  0  0
  2  3  2  0  0  0
  3  4  1  0  0  0
  4  5  1  0  0  0
  5  6  2  0  0  0
  6  7  1  0  0  0
  7  8  2  0  0  0
  8  9  1  0  0  0
  9 10  2  0  0  0
  1 11  1  0  0  0
 11 12  2  0  0  0
 12 13  1  0  0  0
 13 14  1  0  0  0
 14 15  2  0  0  0
 15 16  1  0  0  0
 16 17  2  0  0  0
 17 18  1  0  0  0
 18 19  2  0  0  0
 25 20  1  0  0  0
  6  2  1  0  0  0
 10  5  1  0  0  0
 15 11  1  0  0  0
 19 14  1  0  0  0
M  END
> <minimizedAffinity>
-7.94927

$$$$



 24 26  0  0  0  0  0  0  0  0999 V2000
   -8.5919   26.1078   14.4774 C   0  0  0  0  0  0  0  0  0  0  0  0
   -7.7888   27.1775   15.1563 C   0  0  0  0  0  0  0  0  0  0  0  0
   -6.4440   27.5629   14.6153 C   0  0  0  0  0  0  0  0  0  0  0  0
   -5.9021   26.8787   13.3954 C   0  0  0  0  0  0  0  0  0  0  0  0
   -6.7052   25.8091   12.7165 C   0  0  0  0  0  0  0  0  0  0  0  0
   -8.0501   25.4236   13.2575 C   0  0  0  0  0  0  0  0  0  0  0  0
   -4.5572   27.2642   12.8544 N   0  0  0  0  0  0  0  0  0  0  0  0
   -3.4875   26.2250   12.6936 C   0  0  0  0  0  0  0  0  0  0  0  0
   -3.7627   24.8003   13.0739 O   0  0  0  0  0  0  0  0  0  0  0  0
   -2.1427   26.6105   12.1526 C   0  0  0  0  0  0  0  0  0  0  0  0
   -1.9953   26.9877   10.7083 C   0  0  0  0  0  0  0  0  0  0  0  0
   -0.6504   27.3732   10.1673 C   0  0  0  0  0  0  0  0  0  0  0  0
    0.5471   27.3815   11.0706 C   0  0  0  0  0  0  0  0  0  0  0  0
    0.3997   27.0044   12.5149 C   0  0  0  0  0  0  0  0  0  0  0  0
   -0.9452   26.6189   13.0559 C   0  0  0  0  0  0  0  0  0  0  0  0
   -1.0925   26.2417   14.5002 Cl  0  0  0  0  0  0  0  0  0  0  0  0
   -0.5031   27.7503    8.7230 Br  0  0  0  0  0  0  0  0  0  0  0  0
   -9.9368   25.7224   15.0185 N   0  0  0  0  0  0  0  0  0  0  0  0
  -10.3550   22.0720   17.6164 C   0  0  0  0  0  0  0  0  0  0  0  0
  -11.5726   22.7053   17.0112 C   0  0  0  0  0  0  0  0  0  0  0  0
  -11.4332   23.9221   16.1452 C   0  0  0  0  0  0  0  0  0  0  0  0
  -10.0762   24.5056   15.8844 C   0  0  0  0  0  0  0  0  0  0  0  0
   -8.8586   23.8722   16.4896 C   0  0  0  0  0  0  0  0  0  0  0  0
   -8.9980   22.6554   17.3556 C   0  0  0  0  0  0  0  0  0  0  0  0
 19 20  2  0  0  0
 20 21  1  0  0  0
 21 22  2  0  0  0
 22 23  1  0  0  0
 23 24  2  0  0  0
 22 18  1  0  0  0
 18  1  1  0  0  0
  1  2  2  0  0  0
  2  3  1  0  0  0
  3  4  2  0  0  0
  4  5  1  0  0  0
  5  6  2  0  0  0
  4  7  1  0  0  0
  7  8  1  0  0  0
  8  9  2  0  0  0
  8 10  1  0  0  0
 10 11  2  0  0  0
 11 12  1  0  0  0
 12 13  2  0  0  0
 13 14  1  0  0  0
 14 15  2  0  0  0
 15 16  1  0  0  0
 12 17  1  0  0  0
 24 19  1  0  0  0
  6  1  1  0  0  0
 15 10  1  0  0  0
M  END
> <minimizedAffinity>
-9.00929

$$$$



 28 31  0  0  0  0  0  0  0  0999 V2000
   -3.0913   26.9159   12.3978 C   0  0  0  0  0  0  0  0  0  0  0  0
   -1.6121   26.7322   12.5654 C   0  0  0  0  0  0  0  0  0  0  0  0
   -0.9886   26.7227   11.2011 C   0  0  0  0  0  0  0  0  0  0  0  0
    0.4338   26.5751   10.7487 C   0  0  0  0  0  0  0  0  0  0  0  0
    0.7623   26.6053    9.2855 C   0  0  0  0  0  0  0  0  0  0  0  0
   -0.3316   26.7831    8.2747 C   0  0  0  0  0  0  0  0  0  0  0  0
   -1.7541   26.9307    8.7271 C   0  0  0  0  0  0  0  0  0  0  0  0
   -2.0826   26.9005   10.1904 C   0  0  0  0  0  0  0  0  0  0  0  0
   -3.3821   27.0199   10.9300 N   0  0  0  0  0  0  0  0  0  0  0  0
   -4.8014   28.2767   13.8028 N   0  0  0  0  0  0  0  0  0  0  0  0
   -4.1023   26.9837   13.5039 C   0  0  0  0  0  0  0  0  0  0  0  0
   -4.4142   25.7584   14.3110 O   0  0  0  0  0  0  0  0  0  0  0  0
   -5.8123   28.3445   14.9089 C   0  0  0  0  0  0  0  0  0  0  0  0
  -10.7840   24.9964   14.6383 C   0  0  0  0  0  0  0  0  0  0  0  0
   -9.5411   25.8334   14.7059 C   0  0  0  0  0  0  0  0  0  0  0  0
   -8.7580   26.1154   13.4581 C   0  0  0  0  0  0  0  0  0  0  0  0
   -7.5151   26.9524   13.5257 C   0  0  0  0  0  0  0  0  0  0  0  0
   -7.0553   27.5074   14.8412 C   0  0  0  0  0  0  0  0  0  0  0  0
   -7.8384   27.2254   16.0891 C   0  0  0  0  0  0  0  0  0  0  0  0
   -9.0813   26.3884   16.0215 C   0  0  0  0  0  0  0  0  0  0  0  0
   -0.8841   26.5840   13.8685 S   0  0  0  0  0  0  0  0  0  0  0  0
   -0.5813   25.2174   14.4074 C   0  0  0  0  0  0  0  0  0  0  0  0
    0.7650   24.5995   14.1717 C   0  0  0  0  0  0  0  0  0  0  0  0
    1.0677   23.2328   14.7106 C   0  0  0  0  0  0  0  0  0  0  0  0
    0.0242   22.4839   15.4852 C   0  0  0  0  0  0  0  0  0  0  0  0
   -1.3223   23.1017   15.7209 C   0  0  0  0  0  0  0  0  0  0  0  0
   -1.6250   24.4684   15.1820 C   0  0  0  0  0  0  0  0  0  0  0  0
    0.3269   21.1171   16.0241 Cl  0  0  0  0  0  0  0  0  0  0  0  0
 14 15  1  0  0  0
 15 16  2  0  0  0
 16 17  1  0  0  0
 17 18  2  0  0  0
 18 19  1  0  0  0
 19 20  2  0  0  0
 18 13  1  0  0  0
 13 10  1  0  0  0
 10 11  1  0  0  0
 11 12  2  0  0  0
 11  1  1  0  0  0
  1  2  2  0  0  0
  2  3  1  0  0  0
  3  4  2  0  0  0
  4  5  1  0  0  0
  5  6  2  0  0  0
  6  7  1  0  0  0
  7  8  2  0  0  0
  8  9  1  0  0  0
  2 21  1  0  0  0
 21 22  1  0  0  0
 22 23  2  0  0  0
 23 24  1  0  0  0
 24 25  2  0  0  0
 25 26  1  0  0  0
 26 27  2  0  0  0
 25 28  1  0  0  0
 20 15  1  0  0  0
  9  1  1  0  0  0
  8  3  1  0  0  0
 27 22  1  0  0  0
M  END
> <minimizedAffinity>
-8.71249

$$$$



 27 29  0  0  0  0  0  0  0  0999 V2000
   -3.4201   26.8385   14.6911 N   0  0  0  0  0  0  0  0  0  0  0  0
   -2.3297   26.1740   13.9039 C   0  0  0  0  0  0  0  0  0  0  0  0
   -1.4218   25.1825   14.5692 C   0  0  0  0  0  0  0  0  0  0  0  0
   -1.9262   23.8097   14.9026 C   0  0  0  0  0  0  0  0  0  0  0  0
   -1.0183   22.8182   15.5680 C   0  0  0  0  0  0  0  0  0  0  0  0
    0.3939   23.1995   15.8999 C   0  0  0  0  0  0  0  0  0  0  0  0
    0.8983   24.5722   15.5665 C   0  0  0  0  0  0  0  0  0  0  0  0
   -0.0096   25.5638   14.9012 C   0  0  0  0  0  0  0  0  0  0  0  0
   -2.1473   26.5010   12.4514 C   0  0  0  0  0  0  0  0  0  0  0  0
   -0.8228   27.0009   11.9558 C   0  0  0  0  0  0  0  0  0  0  0  0
   -0.6403   27.3280   10.5033 C   0  0  0  0  0  0  0  0  0  0  0  0
   -1.7824   27.1551    9.5464 C   0  0  0  0  0  0  0  0  0  0  0  0
   -3.1070   26.6552   10.0420 C   0  0  0  0  0  0  0  0  0  0  0  0
   -3.2894   26.3281   11.4945 C   0  0  0  0  0  0  0  0  0  0  0  0
   -4.3280   27.8300   14.0257 N   0  0  0  0  0  0  0  0  0  0  0  0
   -5.7965   27.8252   14.3315 C   0  0  0  0  0  0  0  0  0  0  0  0
   -6.3184   28.5832   15.5161 S   0  0  0  0  0  0  0  0  0  0  0  0
   -6.7430   27.0624   13.4528 N   0  0  0  0  0  0  0  0  0  0  0  0
  -10.1475   24.7565   15.2811 C   0  0  0  0  0  0  0  0  0  0  0  0
  -10.4295   25.9166   14.3731 C   0  0  0  0  0  0  0  0  0  0  0  0
   -9.2947   26.6852   13.7637 C   0  0  0  0  0  0  0  0  0  0  0  0
   -7.8778   26.2938   14.0623 C   0  0  0  0  0  0  0  0  0  0  0  0
   -7.5958   25.1337   14.9703 C   0  0  0  0  0  0  0  0  0  0  0  0
   -8.7306   24.3650   15.5797 C   0  0  0  0  0  0  0  0  0  0  0  0
  -12.6987   24.3450   15.5495 C   0  0  0  0  0  0  0  0  0  0  0  0
  -11.2823   23.9879   15.8905 C   0  0  0  0  0  0  0  0  0  0  0  0
  -11.0008   22.8621   16.8409 C   0  0  0  0  0  0  0  0  0  0  0  0
 25 26  1  0  0  0
 26 27  1  0  0  0
 26 19  1  0  0  0
 19 20  2  0  0  0
 20 21  1  0  0  0
 21 22  2  0  0  0
 22 23  1  0  0  0
 23 24  2  0  0  0
 22 18  1  0  0  0
 18 16  1  0  0  0
 16 17  2  0  0  0
 16 15  1  0  0  0
 15  1  1  0  0  0
  1  2  2  0  0  0
  2  3  1  0  0  0
  3  4  2  0  0  0
  4  5  1  0  0  0
  5  6  2  0  0  0
  6  7  1  0  0  0
  7  8  2  0  0  0
  2  9  1  0  0  0
  9 10  2  0  0  0
 10 11  1  0  0  0
 11 12  2  0  0  0
 12 13  1  0  0  0
 13 14  2  0  0  0
 24 19  1  0  0  0
  8  3  1  0  0  0
 14  9  1  0  0  0
M  END
> <minimizedAffinity>
-9.11032

$$$$



 28 31  0  0  0  0  0  0  0  0999 V2000
   -2.6927   25.1911   13.6444 C   0  0  0  0  0  0  0  0  0  0  0  0
    0.9558   23.2416   15.4158 C   0  0  0  0  0  0  0  0  0  0  0  0
    1.0976   24.1900   14.2624 C   0  0  0  0  0  0  0  0  0  0  0  0
   -0.1186   24.8399   13.6719 C   0  0  0  0  0  0  0  0  0  0  0  0
   -1.4764   24.5412   14.2348 C   0  0  0  0  0  0  0  0  0  0  0  0
   -1.6182   23.5927   15.3882 C   0  0  0  0  0  0  0  0  0  0  0  0
   -0.4021   22.9429   15.9787 C   0  0  0  0  0  0  0  0  0  0  0  0
   -3.3455   26.3421   14.3506 C   0  0  0  0  0  0  0  0  0  0  0  0
   -4.3585   27.1847   13.6339 C   0  0  0  0  0  0  0  0  0  0  0  0
   -3.9273   28.4326   12.9218 O   0  0  0  0  0  0  0  0  0  0  0  0
   -5.8028   26.7795   13.6291 C   0  0  0  0  0  0  0  0  0  0  0  0
   -6.2835   25.7279   12.6737 C   0  0  0  0  0  0  0  0  0  0  0  0
   -7.7278   25.3227   12.6689 C   0  0  0  0  0  0  0  0  0  0  0  0
   -8.6912   25.9691   13.6196 C   0  0  0  0  0  0  0  0  0  0  0  0
   -8.2105   27.0208   14.5751 C   0  0  0  0  0  0  0  0  0  0  0  0
   -6.7663   27.4260   14.5798 C   0  0  0  0  0  0  0  0  0  0  0  0
   -6.2855   28.4776   15.5353 C   0  0  0  0  0  0  0  0  0  0  0  0
   -7.2490   29.1241   16.4859 C   0  0  0  0  0  0  0  0  0  0  0  0
   -8.6932   28.7189   16.4812 C   0  0  0  0  0  0  0  0  0  0  0  0
   -9.1740   27.6673   15.5257 C   0  0  0  0  0  0  0  0  0  0  0  0
   -3.2559   24.6899   12.3477 S   0  0  0  0  0  0  0  0  0  0  0  0
   -2.6339   25.1079   11.0483 C   0  0  0  0  0  0  0  0  0  0  0  0
   -2.8974   26.4778   10.4971 C   0  0  0  0  0  0  0  0  0  0  0  0
   -2.2754   26.8958    9.1977 C   0  0  0  0  0  0  0  0  0  0  0  0
   -1.3899   25.9440    8.4496 C   0  0  0  0  0  0  0  0  0  0  0  0
   -1.1264   24.5740    9.0007 C   0  0  0  0  0  0  0  0  0  0  0  0
   -1.7484   24.1559   10.3001 C   0  0  0  0  0  0  0  0  0  0  0  0
   -1.4849   22.7860   10.8513 N   0  0  0  0  0  0  0  0  0  0  0  0
  2  3  2  0  0  0
  3  4  1  0  0  0
  4  5  2  0  0  0
  5  6  1  0  0  0
  6  7  2  0  0  0
  5  1  1  0  0  0
  1  8  1  0  0  0
  8  9  1  0  0  0
  9 10  2  0  0  0
  9 11  1  0  0  0
 11 12  2  0  0  0
 12 13  1  0  0  0
 13 14  2  0  0  0
 14 15  1  0  0  0
 15 16  2  0  0  0
 16 17  1  0  0  0
 17 18  2  0  0  0
 18 19  1  0  0  0
 19 20  2  0  0  0
  1 21  1  0  0  0
 21 22  1  0  0  0
 22 23  2  0  0  0
 23 24  1  0  0  0
 24 25  2  0  0  0
 25 26  1  0  0  0
 26 27  2  0  0  0
 27 28  1  0  0  0
  7  2  1  0  0  0
 16 11  1  0  0  0
 20 15  1  0  0  0
 27 22  1  0  0  0
M  END
> <minimizedAffinity>
-11.00046

$$$$



 29 33  0  0  0  0  0  0  0  0999 V2000
   -2.3082   26.2090   12.2808 C   0  0  0  0  0  0  0  0  0  0  0  0
    0.6744   27.4557   11.8339 C   0  0  0  0  0  0  0  0  0  0  0  0
    0.3243   26.3082   12.7342 C   0  0  0  0  0  0  0  0  0  0  0  0
   -1.0466   25.7352   12.9397 C   0  0  0  0  0  0  0  0  0  0  0  0
   -0.9346   24.6051   13.9196 C   0  0  0  0  0  0  0  0  0  0  0  0
   -1.9579   23.6740   14.4992 C   0  0  0  0  0  0  0  0  0  0  0  0
   -1.5410   22.6176   15.4791 C   0  0  0  0  0  0  0  0  0  0  0  0
   -0.1008   22.4922   15.8793 C   0  0  0  0  0  0  0  0  0  0  0  0
    0.9224   23.4233   15.2997 C   0  0  0  0  0  0  0  0  0  0  0  0
    0.5056   24.4797   14.3199 C   0  0  0  0  0  0  0  0  0  0  0  0
    1.2836   25.5323   13.5873 N   0  0  0  0  0  0  0  0  0  0  0  0
   -3.4835   26.6184   13.1179 C   0  0  0  0  0  0  0  0  0  0  0  0
   -3.4618   27.6104   14.2428 C   0  0  0  0  0  0  0  0  0  0  0  0
   -4.8518   27.7128   14.7974 N   0  0  0  0  0  0  0  0  0  0  0  0
   -5.7324   26.7841   14.0152 C   0  0  0  0  0  0  0  0  0  0  0  0
   -4.8868   26.1077   12.9773 C   0  0  0  0  0  0  0  0  0  0  0  0
   -5.5039   25.1141   12.0381 C   0  0  0  0  0  0  0  0  0  0  0  0
   -6.9667   24.7969   12.1369 C   0  0  0  0  0  0  0  0  0  0  0  0
   -7.8123   25.4734   13.1749 C   0  0  0  0  0  0  0  0  0  0  0  0
   -7.1952   26.4669   14.1140 C   0  0  0  0  0  0  0  0  0  0  0  0
   -2.2610   28.3672   14.7280 C   0  0  0  0  0  0  0  0  0  0  0  0
   -2.3943   26.2734   10.7846 C   0  0  0  0  0  0  0  0  0  0  0  0
   -3.1759   27.3706   10.1249 C   0  0  0  0  0  0  0  0  0  0  0  0
   -1.6990   25.2405    9.9481 C   0  0  0  0  0  0  0  0  0  0  0  0
   -0.5148   25.6257    9.1119 C   0  0  0  0  0  0  0  0  0  0  0  0
    0.1805   24.5928    8.2754 C   0  0  0  0  0  0  0  0  0  0  0  0
   -0.3083   23.1747    8.2753 C   0  0  0  0  0  0  0  0  0  0  0  0
   -1.4925   22.7895    9.1116 C   0  0  0  0  0  0  0  0  0  0  0  0
   -2.1879   23.8224    9.9480 C   0  0  0  0  0  0  0  0  0  0  0  0
  2  3  1  0  0  0
  3  4  2  0  0  0
  4  5  1  0  0  0
  5  6  2  0  0  0
  6  7  1  0  0  0
  7  8  2  0  0  0
  8  9  1  0  0  0
  9 10  2  0  0  0
 10 11  1  0  0  0
  4  1  1  0  0  0
  1 12  1  0  0  0
 12 13  2  0  0  0
 13 14  1  0  0  0
 14 15  1  0  0  0
 15 16  2  0  0  0
 16 17  1  0  0  0
 17 18  2  0  0  0
 18 19  1  0  0  0
 19 20  2  0  0  0
 13 21  1  0  0  0
  1 22  1  0  0  0
 22 23  1  0  0  0
 22 24  1  0  0  0
 24 25  2  0  0  0
 25 26  1  0  0  0
 26 27  2  0  0  0
 27 28  1  0  0  0
 28 29  2  0  0  0
 11  3  1  0  0  0
 10  5  1  0  0  0
 16 12  1  0  0  0
 20 15  1  0  0  0
 29 24  1  0  0  0
M  END
> <minimizedAffinity>
-4.89282

$$$$



 28 31  0  0  0  0  0  0  0  0999 V2000
   -3.1210   26.4442   11.7783 C   0  0  0  0  0  0  0  0  0  0  0  0
   -1.6960   26.5696   12.2297 C   0  0  0  0  0  0  0  0  0  0  0  0
   -0.8408   26.7723   11.0142 C   0  0  0  0  0  0  0  0  0  0  0  0
    0.6383   26.9571   10.8472 C   0  0  0  0  0  0  0  0  0  0  0  0
    1.2211   27.1416    9.4774 C   0  0  0  0  0  0  0  0  0  0  0  0
    0.3247   27.1414    8.2747 C   0  0  0  0  0  0  0  0  0  0  0  0
   -1.1544   26.9567    8.4417 C   0  0  0  0  0  0  0  0  0  0  0  0
   -1.7372   26.7721    9.8115 C   0  0  0  0  0  0  0  0  0  0  0  0
   -3.1464   26.5693   10.2838 N   0  0  0  0  0  0  0  0  0  0  0  0
   -5.5178   25.5097   12.1417 N   0  0  0  0  0  0  0  0  0  0  0  0
   -4.3114   26.2310   12.6656 C   0  0  0  0  0  0  0  0  0  0  0  0
   -4.2956   26.7390   14.0768 O   0  0  0  0  0  0  0  0  0  0  0  0
   -6.7083   25.2966   13.0290 C   0  0  0  0  0  0  0  0  0  0  0  0
   -7.7476   26.3702   13.1604 C   0  0  0  0  0  0  0  0  0  0  0  0
   -8.0751   28.7293   16.9784 C   0  0  0  0  0  0  0  0  0  0  0  0
   -6.9104   28.9484   16.0590 C   0  0  0  0  0  0  0  0  0  0  0  0
   -6.8012   28.1620   14.7863 C   0  0  0  0  0  0  0  0  0  0  0  0
   -7.8568   27.1566   14.4331 C   0  0  0  0  0  0  0  0  0  0  0  0
   -9.0216   26.9374   15.3525 C   0  0  0  0  0  0  0  0  0  0  0  0
   -9.1307   27.7238   16.6252 C   0  0  0  0  0  0  0  0  0  0  0  0
   -1.2114   26.5040   13.6478 S   0  0  0  0  0  0  0  0  0  0  0  0
   -0.8178   25.1858   14.2456 C   0  0  0  0  0  0  0  0  0  0  0  0
   -1.7884   24.4330   15.1066 C   0  0  0  0  0  0  0  0  0  0  0  0
   -1.3948   23.1149   15.7044 C   0  0  0  0  0  0  0  0  0  0  0  0
   -0.0306   22.5494   15.4413 C   0  0  0  0  0  0  0  0  0  0  0  0
    0.9400   23.3021   14.5803 C   0  0  0  0  0  0  0  0  0  0  0  0
    0.5464   24.6203   13.9825 C   0  0  0  0  0  0  0  0  0  0  0  0
    0.3630   21.2312   16.0392 Cl  0  0  0  0  0  0  0  0  0  0  0  0
 15 16  2  0  0  0
 16 17  1  0  0  0
 17 18  2  0  0  0
 18 19  1  0  0  0
 19 20  2  0  0  0
 18 14  1  0  0  0
 14 13  1  0  0  0
 13 10  1  0  0  0
 10 11  1  0  0  0
 11 12  2  0  0  0
 11  1  1  0  0  0
  1  2  2  0  0  0
  2  3  1  0  0  0
  3  4  2  0  0  0
  4  5  1  0  0  0
  5  6  2  0  0  0
  6  7  1  0  0  0
  7  8  2  0  0  0
  8  9  1  0  0  0
  2 21  1  0  0  0
 21 22  1  0  0  0
 22 23  2  0  0  0
 23 24  1  0  0  0
 24 25  2  0  0  0
 25 26  1  0  0  0
 26 27  2  0  0  0
 25 28  1  0  0  0
 20 15  1  0  0  0
  9  1  1  0  0  0
  8  3  1  0  0  0
 27 22  1  0  0  0
M  END
> <minimizedAffinity>
-9.37669

$$$$



 27 30  0  0  0  0  0  0  0  0999 V2000
    0.8184   23.9506   14.6660 C   0  0  0  0  0  0  0  0  0  0  0  0
   -0.5101   24.6050   14.4280 C   0  0  0  0  0  0  0  0  0  0  0  0
   -0.6628   26.0845   14.6217 C   0  0  0  0  0  0  0  0  0  0  0  0
   -1.9914   26.7389   14.3837 C   0  0  0  0  0  0  0  0  0  0  0  0
   -3.1673   25.9138   13.9520 C   0  0  0  0  0  0  0  0  0  0  0  0
   -3.0146   24.4342   13.7583 C   0  0  0  0  0  0  0  0  0  0  0  0
   -1.6860   23.7798   13.9964 C   0  0  0  0  0  0  0  0  0  0  0  0
   -4.3426   23.8832   13.3308 N   0  0  0  0  0  0  0  0  0  0  0  0
   -5.3161   25.0222   13.2602 C   0  0  0  0  0  0  0  0  0  0  0  0
   -4.5896   26.2772   13.6441 C   0  0  0  0  0  0  0  0  0  0  0  0
   -6.7621   24.9237   12.8735 C   0  0  0  0  0  0  0  0  0  0  0  0
   -7.1600   25.0106   11.4299 O   0  0  0  0  0  0  0  0  0  0  0  0
   -7.8101   24.7382   13.9306 N   0  0  0  0  0  0  0  0  0  0  0  0
   -9.2560   24.6396   13.5440 C   0  0  0  0  0  0  0  0  0  0  0  0
  -10.3005   24.4173   14.5973 C   0  0  0  0  0  0  0  0  0  0  0  0
  -10.0445   24.0552   16.0302 C   0  0  0  0  0  0  0  0  0  0  0  0
  -11.3701   23.9322   16.7212 C   0  0  0  0  0  0  0  0  0  0  0  0
  -12.4455   24.2183   15.7153 C   0  0  0  0  0  0  0  0  0  0  0  0
  -11.7843   24.5182   14.4027 S   0  0  0  0  0  0  0  0  0  0  0  0
   -5.1816   27.6539   13.7088 S   0  0  0  0  0  0  0  0  0  0  0  0
   -6.2373   27.9693   14.7267 C   0  0  0  0  0  0  0  0  0  0  0  0
   -7.6752   27.6538   14.4384 C   0  0  0  0  0  0  0  0  0  0  0  0
   -8.7309   27.9692   15.4562 C   0  0  0  0  0  0  0  0  0  0  0  0
   -8.3489   28.6001   16.7623 C   0  0  0  0  0  0  0  0  0  0  0  0
   -6.9111   28.9157   17.0506 C   0  0  0  0  0  0  0  0  0  0  0  0
   -5.8553   28.6003   16.0328 C   0  0  0  0  0  0  0  0  0  0  0  0
   -9.4045   28.9156   17.7801 Cl  0  0  0  0  0  0  0  0  0  0  0  0
  1  2  1  0  0  0
  2  3  2  0  0  0
  3  4  1  0  0  0
  4  5  2  0  0  0
  5  6  1  0  0  0
  6  7  2  0  0  0
  6  8  1  0  0  0
  8  9  1  0  0  0
  9 10  2  0  0  0
 10 20  1  0  0  0
 20 21  1  0  0  0
 21 22  2  0  0  0
 22 23  1  0  0  0
 23 24  2  0  0  0
 24 25  1  0  0  0
 25 26  2  0  0  0
 24 27  1  0  0  0
  9 11  1  0  0  0
 11 12  2  0  0  0
 11 13  1  0  0  0
 13 14  1  0  0  0
 14 15  1  0  0  0
 15 16  2  0  0  0
 16 17  1  0  0  0
 17 18  2  0  0  0
 18 19  1  0  0  0
  7  2  1  0  0  0
 10  5  1  0  0  0
 26 21  1  0  0  0
 19 15  1  0  0  0
M  END
> <minimizedAffinity>
-8.17541

$$$$



 27 31  0  0  0  0  0  0  0  0999 V2000
   -3.1235   25.9783   12.9209 C   0  0  0  0  0  0  0  0  0  0  0  0
   -2.6376   28.4562   14.9882 C   0  0  0  0  0  0  0  0  0  0  0  0
   -3.9671   27.8839   14.5949 C   0  0  0  0  0  0  0  0  0  0  0  0
   -4.1905   26.7449   13.6447 C   0  0  0  0  0  0  0  0  0  0  0  0
   -5.6682   26.5071   13.5453 C   0  0  0  0  0  0  0  0  0  0  0  0
   -6.4747   25.5155   12.7603 C   0  0  0  0  0  0  0  0  0  0  0  0
   -7.9710   25.5158   12.8642 C   0  0  0  0  0  0  0  0  0  0  0  0
   -8.6610   26.5078   13.7530 C   0  0  0  0  0  0  0  0  0  0  0  0
   -7.8545   27.4995   14.5379 C   0  0  0  0  0  0  0  0  0  0  0  0
   -6.3581   27.4991   14.4341 C   0  0  0  0  0  0  0  0  0  0  0  0
   -5.3068   28.3500   15.0828 N   0  0  0  0  0  0  0  0  0  0  0  0
   -2.4840   24.7872   13.5709 C   0  0  0  0  0  0  0  0  0  0  0  0
   -3.0350   23.3923   13.5916 C   0  0  0  0  0  0  0  0  0  0  0  0
   -2.0727   22.5250   14.3478 N   0  0  0  0  0  0  0  0  0  0  0  0
   -0.9270   23.3839   14.7944 C   0  0  0  0  0  0  0  0  0  0  0  0
   -1.1811   24.7821   14.3143 C   0  0  0  0  0  0  0  0  0  0  0  0
   -0.1934   25.8699   14.6160 C   0  0  0  0  0  0  0  0  0  0  0  0
    1.0485   25.5595   15.3978 C   0  0  0  0  0  0  0  0  0  0  0  0
    1.3027   24.1613   15.8780 C   0  0  0  0  0  0  0  0  0  0  0  0
    0.3149   23.0735   15.5763 C   0  0  0  0  0  0  0  0  0  0  0  0
   -4.3223   22.9435   12.9661 C   0  0  0  0  0  0  0  0  0  0  0  0
   -2.6960   26.4027   11.5473 C   0  0  0  0  0  0  0  0  0  0  0  0
   -3.5616   26.4261   10.3224 C   0  0  0  0  0  0  0  0  0  0  0  0
   -2.7284   26.9161    9.1753 C   0  0  0  0  0  0  0  0  0  0  0  0
   -1.3480   27.1954    9.6912 C   0  0  0  0  0  0  0  0  0  0  0  0
   -1.3279   26.8781   11.1571 S   0  0  0  0  0  0  0  0  0  0  0  0
   -0.1907   27.7029    8.8831 Br  0  0  0  0  0  0  0  0  0  0  0  0
  2  3  1  0  0  0
  3  4  2  0  0  0
  4  5  1  0  0  0
  5  6  2  0  0  0
  6  7  1  0  0  0
  7  8  2  0  0  0
  8  9  1  0  0  0
  9 10  2  0  0  0
 10 11  1  0  0  0
  4  1  1  0  0  0
  1 22  1  0  0  0
 22 23  2  0  0  0
 23 24  1  0  0  0
 24 25  2  0  0  0
 25 26  1  0  0  0
 25 27  1  0  0  0
  1 12  1  0  0  0
 12 13  2  0  0  0
 13 14  1  0  0  0
 14 15  1  0  0  0
 15 16  2  0  0  0
 16 17  1  0  0  0
 17 18  2  0  0  0
 18 19  1  0  0  0
 19 20  2  0  0  0
 13 21  1  0  0  0
 11  3  1  0  0  0
 10  5  1  0  0  0
 26 22  1  0  0  0
 16 12  1  0  0  0
 20 15  1  0  0  0
M  END
> <minimizedAffinity>
-6.42445

$$$$



 20 21  0  0  0  0  0  0  0  0999 V2000
   -2.9127   26.6326   13.9256 N   0  0  0  0  0  0  0  0  0  0  0  0
   -3.8881   27.7477   14.1600 C   0  0  0  0  0  0  0  0  0  0  0  0
   -5.3498   27.4462   14.3111 C   0  0  0  0  0  0  0  0  0  0  0  0
   -6.1915   28.2638   15.2454 C   0  0  0  0  0  0  0  0  0  0  0  0
   -7.6532   27.9623   15.3965 C   0  0  0  0  0  0  0  0  0  0  0  0
   -8.2730   26.8433   14.6132 C   0  0  0  0  0  0  0  0  0  0  0  0
   -7.4312   26.0257   13.6788 C   0  0  0  0  0  0  0  0  0  0  0  0
   -5.9696   26.3272   13.5278 C   0  0  0  0  0  0  0  0  0  0  0  0
   -8.0510   24.9067   12.8955 Br  0  0  0  0  0  0  0  0  0  0  0  0
   -9.7346   26.5418   14.7643 O   0  0  0  0  0  0  0  0  0  0  0  0
   -8.4949   28.7798   16.3309 Br  0  0  0  0  0  0  0  0  0  0  0  0
   -1.4511   26.9340   13.7745 N   0  0  0  0  0  0  0  0  0  0  0  0
    1.0675   26.9210    8.3287 C   0  0  0  0  0  0  0  0  0  0  0  0
    0.4378   26.9242    9.6901 C   0  0  0  0  0  0  0  0  0  0  0  0
    1.3016   26.9613   10.9159 C   0  0  0  0  0  0  0  0  0  0  0  0
    0.6720   26.9646   12.2773 C   0  0  0  0  0  0  0  0  0  0  0  0
   -0.8215   26.9307   12.4130 C   0  0  0  0  0  0  0  0  0  0  0  0
   -1.6852   26.8936   11.1873 C   0  0  0  0  0  0  0  0  0  0  0  0
   -1.0556   26.8904    9.8259 C   0  0  0  0  0  0  0  0  0  0  0  0
   -1.9195   26.8533    8.6001 Cl  0  0  0  0  0  0  0  0  0  0  0  0
 13 14  1  0  0  0
 14 15  2  0  0  0
 15 16  1  0  0  0
 16 17  2  0  0  0
 17 18  1  0  0  0
 18 19  2  0  0  0
 19 20  1  0  0  0
 17 12  1  0  0  0
 12  1  1  0  0  0
  1  2  2  0  0  0
  2  3  1  0  0  0
  3  4  2  0  0  0
  4  5  1  0  0  0
  5  6  2  0  0  0
  6  7  1  0  0  0
  7  8  2  0  0  0
  7  9  1  0  0  0
  6 10  1  0  0  0
  5 11  1  0  0  0
 19 14  1  0  0  0
  8  3  1  0  0  0
M  END
> <minimizedAffinity>
-7.54626

$$$$



 26 29  0  0  0  0  0  0  0  0999 V2000
   -4.0480   26.9271   12.1942 C   0  0  0  0  0  0  0  0  0  0  0  0
   -4.1018   28.0006   13.2404 C   0  0  0  0  0  0  0  0  0  0  0  0
   -5.2785   28.0867   14.1667 C   0  0  0  0  0  0  0  0  0  0  0  0
   -6.4014   27.0994   14.0467 C   0  0  0  0  0  0  0  0  0  0  0  0
   -7.6807   26.9364   14.8128 C   0  0  0  0  0  0  0  0  0  0  0  0
   -8.4175   25.7621   14.2400 C   0  0  0  0  0  0  0  0  0  0  0  0
   -7.5936   25.1994   13.1199 S   0  0  0  0  0  0  0  0  0  0  0  0
   -6.3475   26.0259   13.0005 C   0  0  0  0  0  0  0  0  0  0  0  0
   -5.1709   25.9397   12.0742 N   0  0  0  0  0  0  0  0  0  0  0  0
   -8.1421   27.7966   15.9517 N   0  0  0  0  0  0  0  0  0  0  0  0
   -3.0855   26.8190    9.7834 C   0  0  0  0  0  0  0  0  0  0  0  0
   -1.9089   26.7328    8.8571 C   0  0  0  0  0  0  0  0  0  0  0  0
   -0.5180   26.6684    9.4153 C   0  0  0  0  0  0  0  0  0  0  0  0
   -0.3039   26.6902   10.8997 C   0  0  0  0  0  0  0  0  0  0  0  0
   -1.4806   26.7764   11.8261 C   0  0  0  0  0  0  0  0  0  0  0  0
   -2.8713   26.8409   11.2679 C   0  0  0  0  0  0  0  0  0  0  0  0
    0.6586   26.5822    8.4889 F   0  0  0  0  0  0  0  0  0  0  0  0
   -9.7452   25.2418   14.7055 C   0  0  0  0  0  0  0  0  0  0  0  0
  -11.0094   25.7309   14.0633 O   0  0  0  0  0  0  0  0  0  0  0  0
   -9.8086   24.2324   15.8133 C   0  0  0  0  0  0  0  0  0  0  0  0
  -11.1263   23.6349   16.2089 C   0  0  0  0  0  0  0  0  0  0  0  0
  -11.1897   22.6254   17.3166 C   0  0  0  0  0  0  0  0  0  0  0  0
   -9.9354   22.2136   18.0287 C   0  0  0  0  0  0  0  0  0  0  0  0
   -8.6177   22.8111   17.6330 C   0  0  0  0  0  0  0  0  0  0  0  0
   -8.5543   23.8205   16.5253 C   0  0  0  0  0  0  0  0  0  0  0  0
   -9.9988   21.2042   19.1364 Br  0  0  0  0  0  0  0  0  0  0  0  0
 11 12  2  0  0  0
 12 13  1  0  0  0
 13 14  2  0  0  0
 14 15  1  0  0  0
 15 16  2  0  0  0
 16  1  1  0  0  0
  1  2  2  0  0  0
  2  3  1  0  0  0
  3  4  2  0  0  0
  4  5  1  0  0  0
  5  6  2  0  0  0
  6  7  1  0  0  0
  7  8  1  0  0  0
  8  9  2  0  0  0
  6 18  1  0  0  0
 18 19  2  0  0  0
 18 20  1  0  0  0
 20 21  2  0  0  0
 21 22  1  0  0  0
 22 23  2  0  0  0
 23 24  1  0  0  0
 24 25  2  0  0  0
 23 26  1  0  0  0
  5 10  1  0  0  0
 13 17  1  0  0  0
 16 11  1  0  0  0
  9  1  1  0  0  0
  8  4  1  0  0  0
 25 20  1  0  0  0
M  END
> <minimizedAffinity>
-10.31456

$$$$



 31 35  0  0  0  0  0  0  0  0999 V2000
   -3.7999   26.5569   12.9648 C   0  0  0  0  0  0  0  0  0  0  0  0
   -4.1314   25.2313   12.3462 C   0  0  0  0  0  0  0  0  0  0  0  0
   -5.4468   24.5737   12.6416 C   0  0  0  0  0  0  0  0  0  0  0  0
   -6.4308   25.2419   13.5557 C   0  0  0  0  0  0  0  0  0  0  0  0
   -6.0992   26.5676   14.1743 C   0  0  0  0  0  0  0  0  0  0  0  0
   -4.7837   27.2251   13.8788 C   0  0  0  0  0  0  0  0  0  0  0  0
   -7.0831   27.2357   15.0884 C   0  0  0  0  0  0  0  0  0  0  0  0
   -7.0349   28.5337   15.8386 C   0  0  0  0  0  0  0  0  0  0  0  0
   -8.3205   28.6784   16.5977 C   0  0  0  0  0  0  0  0  0  0  0  0
   -9.1633   27.4698   16.3167 C   0  0  0  0  0  0  0  0  0  0  0  0
   -8.3986   26.5782   15.3838 C   0  0  0  0  0  0  0  0  0  0  0  0
   -8.7301   25.2525   14.7652 C   0  0  0  0  0  0  0  0  0  0  0  0
   -7.7461   24.5844   13.8512 N   0  0  0  0  0  0  0  0  0  0  0  0
  -10.0455   24.5949   15.0607 C   0  0  0  0  0  0  0  0  0  0  0  0
  -10.2260   23.8151   16.3293 C   0  0  0  0  0  0  0  0  0  0  0  0
  -11.5415   23.1576   16.6246 C   0  0  0  0  0  0  0  0  0  0  0  0
  -12.6764   23.2798   15.6515 C   0  0  0  0  0  0  0  0  0  0  0  0
  -12.4958   24.0596   14.3828 C   0  0  0  0  0  0  0  0  0  0  0  0
  -11.1804   24.7171   14.0874 C   0  0  0  0  0  0  0  0  0  0  0  0
  -13.6307   24.1818   13.4097 Cl  0  0  0  0  0  0  0  0  0  0  0  0
   -1.2234   26.6760   13.2774 C   0  0  0  0  0  0  0  0  0  0  0  0
   -1.2777   25.4799   14.1809 O   0  0  0  0  0  0  0  0  0  0  0  0
   -2.4845   27.2145   12.6694 N   0  0  0  0  0  0  0  0  0  0  0  0
    0.0920   27.3335   12.9820 C   0  0  0  0  0  0  0  0  0  0  0  0
    0.7111   27.1953   11.6228 C   0  0  0  0  0  0  0  0  0  0  0  0
   -1.6135   25.2886    8.2746 C   0  0  0  0  0  0  0  0  0  0  0  0
   -0.7984   24.4367    9.2018 C   0  0  0  0  0  0  0  0  0  0  0  0
   -0.0235   25.0722   10.3179 C   0  0  0  0  0  0  0  0  0  0  0  0
   -0.0637   26.5597   10.5067 C   0  0  0  0  0  0  0  0  0  0  0  0
   -0.8788   27.4117    9.5795 C   0  0  0  0  0  0  0  0  0  0  0  0
   -1.6537   26.7761    8.4634 C   0  0  0  0  0  0  0  0  0  0  0  0
 26 27  2  0  0  0
 27 28  1  0  0  0
 28 29  2  0  0  0
 29 30  1  0  0  0
 30 31  2  0  0  0
 29 25  1  0  0  0
 25 24  1  0  0  0
 24 21  1  0  0  0
 21 22  2  0  0  0
 21 23  1  0  0  0
 23  1  1  0  0  0
  1  2  2  0  0  0
  2  3  1  0  0  0
  3  4  2  0  0  0
  4  5  1  0  0  0
  5  6  2  0  0  0
  5  7  1  0  0  0
  7  8  1  0  0  0
  8  9  2  0  0  0
  9 10  1  0  0  0
 11 10  1  0  0  0
 11 12  1  0  0  0
 12 13  1  0  0  0
 12 14  1  0  0  0
 14 15  2  0  0  0
 15 16  1  0  0  0
 16 17  2  0  0  0
 17 18  1  0  0  0
 18 19  2  0  0  0
 18 20  1  0  0  0
 31 26  1  0  0  0
  6  1  1  0  0  0
 13  4  1  0  0  0
 11  7  1  0  0  0
 19 14  1  0  0  0
M  END
> <minimizedAffinity>
-10.76420

$$$$



 30 35  0  0  0  0  0  0  0  0999 V2000
   -2.8285   26.5856   12.8088 C   0  0  0  0  0  0  0  0  0  0  0  0
   -3.1369   25.1982   12.3293 C   0  0  0  0  0  0  0  0  0  0  0  0
   -4.4419   24.5527   12.6902 C   0  0  0  0  0  0  0  0  0  0  0  0
   -5.4386   25.2947   13.5306 C   0  0  0  0  0  0  0  0  0  0  0  0
   -5.1301   26.6821   14.0102 C   0  0  0  0  0  0  0  0  0  0  0  0
   -3.8251   27.3276   13.6492 C   0  0  0  0  0  0  0  0  0  0  0  0
   -6.1268   27.4240   14.8506 C   0  0  0  0  0  0  0  0  0  0  0  0
   -6.1013   28.7927   15.4638 C   0  0  0  0  0  0  0  0  0  0  0  0
   -7.3907   28.9931   16.2037 C   0  0  0  0  0  0  0  0  0  0  0  0
   -8.2129   27.7483   16.0477 C   0  0  0  0  0  0  0  0  0  0  0  0
   -7.4318   26.7785   15.2114 C   0  0  0  0  0  0  0  0  0  0  0  0
   -7.7402   25.3911   14.7319 C   0  0  0  0  0  0  0  0  0  0  0  0
   -6.7436   24.6492   13.8915 N   0  0  0  0  0  0  0  0  0  0  0  0
   -9.0452   24.7456   15.0928 C   0  0  0  0  0  0  0  0  0  0  0  0
   -9.1302   23.8424   16.2875 C   0  0  0  0  0  0  0  0  0  0  0  0
  -10.4351   23.1969   16.6484 C   0  0  0  0  0  0  0  0  0  0  0  0
  -11.6553   23.4545   15.8147 C   0  0  0  0  0  0  0  0  0  0  0  0
  -12.9602   22.8091   16.1756 C   0  0  0  0  0  0  0  0  0  0  0  0
  -14.1804   23.0667   15.3419 C   0  0  0  0  0  0  0  0  0  0  0  0
  -14.0954   23.9699   14.1473 C   0  0  0  0  0  0  0  0  0  0  0  0
  -12.7904   24.6154   13.7864 C   0  0  0  0  0  0  0  0  0  0  0  0
  -11.5703   24.3577   14.6201 C   0  0  0  0  0  0  0  0  0  0  0  0
  -10.2653   25.0033   14.2591 C   0  0  0  0  0  0  0  0  0  0  0  0
   -1.5235   27.2311   12.4479 N   0  0  0  0  0  0  0  0  0  0  0  0
    0.1098   26.8245    8.2745 C   0  0  0  0  0  0  0  0  0  0  0  0
   -1.3620   27.0198    8.4882 C   0  0  0  0  0  0  0  0  0  0  0  0
   -1.9064   27.1553    9.8793 C   0  0  0  0  0  0  0  0  0  0  0  0
   -0.9791   27.0956   11.0568 C   0  0  0  0  0  0  0  0  0  0  0  0
    0.4927   26.9003   10.8431 C   0  0  0  0  0  0  0  0  0  0  0  0
    1.0372   26.7648    9.4521 C   0  0  0  0  0  0  0  0  0  0  0  0
 25 26  2  0  0  0
 26 27  1  0  0  0
 27 28  2  0  0  0
 28 29  1  0  0  0
 29 30  2  0  0  0
 28 24  1  0  0  0
 24  1  1  0  0  0
  1  2  2  0  0  0
  2  3  1  0  0  0
  3  4  2  0  0  0
  4  5  1  0  0  0
  5  6  2  0  0  0
  5  7  1  0  0  0
  7  8  1  0  0  0
  8  9  2  0  0  0
  9 10  1  0  0  0
 11 10  1  0  0  0
 11 12  1  0  0  0
 12 13  1  0  0  0
 12 14  1  0  0  0
 14 15  2  0  0  0
 15 16  1  0  0  0
 16 17  2  0  0  0
 17 18  1  0  0  0
 18 19  2  0  0  0
 19 20  1  0  0  0
 20 21  2  0  0  0
 21 22  1  0  0  0
 22 23  2  0  0  0
 30 25  1  0  0  0
  6  1  1  0  0  0
 13  4  1  0  0  0
 11  7  1  0  0  0
 23 14  1  0  0  0
 22 17  1  0  0  0
M  END
> <minimizedAffinity>
-10.57797

$$$$



 30 34  0  0  0  0  0  0  0  0999 V2000
   -4.6864   26.1627   11.8031 C   0  0  0  0  0  0  0  0  0  0  0  0
   -5.2637   24.8663   11.3172 C   0  0  0  0  0  0  0  0  0  0  0  0
   -6.4898   24.2999   11.9698 C   0  0  0  0  0  0  0  0  0  0  0  0
   -7.1385   25.0299   13.1085 C   0  0  0  0  0  0  0  0  0  0  0  0
   -6.5611   26.3263   13.5944 C   0  0  0  0  0  0  0  0  0  0  0  0
   -5.3350   26.8926   12.9416 C   0  0  0  0  0  0  0  0  0  0  0  0
   -7.2098   27.0562   14.7329 C   0  0  0  0  0  0  0  0  0  0  0  0
   -6.8701   28.3439   15.4232 C   0  0  0  0  0  0  0  0  0  0  0  0
   -7.8862   28.5733   16.5025 C   0  0  0  0  0  0  0  0  0  0  0  0
   -8.8539   27.4274   16.4792 C   0  0  0  0  0  0  0  0  0  0  0  0
   -8.4359   26.4898   15.3856 C   0  0  0  0  0  0  0  0  0  0  0  0
   -9.0132   25.1934   14.8996 C   0  0  0  0  0  0  0  0  0  0  0  0
   -8.3645   24.4635   13.7611 N   0  0  0  0  0  0  0  0  0  0  0  0
  -10.2393   24.6270   15.5523 C   0  0  0  0  0  0  0  0  0  0  0  0
  -11.6007   25.0440   15.0804 C   0  0  0  0  0  0  0  0  0  0  0  0
  -12.8268   24.4775   15.7331 C   0  0  0  0  0  0  0  0  0  0  0  0
  -12.6914   23.4941   16.8576 C   0  0  0  0  0  0  0  0  0  0  0  0
  -11.3299   23.0771   17.3295 C   0  0  0  0  0  0  0  0  0  0  0  0
  -10.1039   23.6435   16.6769 C   0  0  0  0  0  0  0  0  0  0  0  0
   -8.7425   23.2266   17.1486 Cl  0  0  0  0  0  0  0  0  0  0  0  0
  -11.1946   22.0937   18.4540 Cl  0  0  0  0  0  0  0  0  0  0  0  0
   -2.4629   25.8131   10.5053 C   0  0  0  0  0  0  0  0  0  0  0  0
   -2.6916   24.3307   10.5128 O   0  0  0  0  0  0  0  0  0  0  0  0
   -3.4603   26.7291   11.1505 N   0  0  0  0  0  0  0  0  0  0  0  0
    1.2154   27.5123    8.5474 C   0  0  0  0  0  0  0  0  0  0  0  0
   -0.0983   28.2254    8.4221 C   0  0  0  0  0  0  0  0  0  0  0  0
   -1.3244   27.6589    9.0748 C   0  0  0  0  0  0  0  0  0  0  0  0
   -1.2369   26.3795    9.8527 C   0  0  0  0  0  0  0  0  0  0  0  0
    0.0769   25.6664    9.9780 C   0  0  0  0  0  0  0  0  0  0  0  0
    1.3030   26.2328    9.3254 C   0  0  0  0  0  0  0  0  0  0  0  0
 25 26  2  0  0  0
 26 27  1  0  0  0
 27 28  2  0  0  0
 28 29  1  0  0  0
 29 30  2  0  0  0
 28 22  1  0  0  0
 22 23  2  0  0  0
 22 24  1  0  0  0
 24  1  1  0  0  0
  1  2  2  0  0  0
  2  3  1  0  0  0
  3  4  2  0  0  0
  4  5  1  0  0  0
  5  6  2  0  0  0
  5  7  1  0  0  0
  7  8  1  0  0  0
  8  9  2  0  0  0
  9 10  1  0  0  0
 11 10  1  0  0  0
 11 12  1  0  0  0
 12 13  1  0  0  0
 12 14  1  0  0  0
 14 15  2  0  0  0
 15 16  1  0  0  0
 16 17  2  0  0  0
 17 18  1  0  0  0
 18 19  2  0  0  0
 19 20  1  0  0  0
 18 21  1  0  0  0
 30 25  1  0  0  0
  6  1  1  0  0  0
 13  4  1  0  0  0
 11  7  1  0  0  0
 19 14  1  0  0  0
M  END
> <minimizedAffinity>
-7.42944

$$$$



 31 35  0  0  0  0  0  0  0  0999 V2000
   -5.0894   26.1939   12.2905 C   0  0  0  0  0  0  0  0  0  0  0  0
   -5.6363   24.9662   11.6245 C   0  0  0  0  0  0  0  0  0  0  0  0
   -6.9498   24.3940   12.0687 C   0  0  0  0  0  0  0  0  0  0  0  0
   -7.7164   25.0495   13.1790 C   0  0  0  0  0  0  0  0  0  0  0  0
   -7.1695   26.2773   13.8451 C   0  0  0  0  0  0  0  0  0  0  0  0
   -5.8559   26.8495   13.4008 C   0  0  0  0  0  0  0  0  0  0  0  0
   -7.9361   26.9328   14.9553 C   0  0  0  0  0  0  0  0  0  0  0  0
   -7.6508   28.1437   15.7933 C   0  0  0  0  0  0  0  0  0  0  0  0
   -8.7880   28.3198   16.7555 C   0  0  0  0  0  0  0  0  0  0  0  0
   -9.7761   27.2178   16.5121 C   0  0  0  0  0  0  0  0  0  0  0  0
   -9.2495   26.3606   15.3995 C   0  0  0  0  0  0  0  0  0  0  0  0
   -9.7964   25.1328   14.7335 C   0  0  0  0  0  0  0  0  0  0  0  0
   -9.0298   24.4773   13.6232 N   0  0  0  0  0  0  0  0  0  0  0  0
  -11.1099   24.5606   15.1777 C   0  0  0  0  0  0  0  0  0  0  0  0
  -11.1799   23.7158   16.4152 C   0  0  0  0  0  0  0  0  0  0  0  0
  -12.4934   23.1436   16.8593 C   0  0  0  0  0  0  0  0  0  0  0  0
  -13.7370   23.4162   16.0660 C   0  0  0  0  0  0  0  0  0  0  0  0
  -13.6669   24.2610   14.8285 C   0  0  0  0  0  0  0  0  0  0  0  0
  -12.3535   24.8332   14.3843 C   0  0  0  0  0  0  0  0  0  0  0  0
  -15.0504   22.8440   16.5102 S   0  0  0  0  0  0  0  0  0  0  0  0
  -15.3783   21.4084   16.2241 C   0  0  0  0  0  0  0  0  0  0  0  0
   -2.6384   25.8520   11.4997 C   0  0  0  0  0  0  0  0  0  0  0  0
   -2.8142   24.3655   11.5971 O   0  0  0  0  0  0  0  0  0  0  0  0
   -3.7759   26.7662   11.8463 N   0  0  0  0  0  0  0  0  0  0  0  0
   -2.3339   26.9225    8.7137 C   0  0  0  0  0  0  0  0  0  0  0  0
   -1.1727   26.9595    9.6624 C   0  0  0  0  0  0  0  0  0  0  0  0
    0.1408   27.5317    9.2182 C   0  0  0  0  0  0  0  0  0  0  0  0
    1.3021   27.5687   10.1669 C   0  0  0  0  0  0  0  0  0  0  0  0
    1.1498   27.0334   11.5599 C   0  0  0  0  0  0  0  0  0  0  0  0
   -0.1636   26.4612   12.0041 C   0  0  0  0  0  0  0  0  0  0  0  0
   -1.3249   26.4242   11.0554 C   0  0  0  0  0  0  0  0  0  0  0  0
 25 26  1  0  0  0
 26 27  2  0  0  0
 27 28  1  0  0  0
 28 29  2  0  0  0
 29 30  1  0  0  0
 30 31  2  0  0  0
 31 22  1  0  0  0
 22 23  2  0  0  0
 22 24  1  0  0  0
 24  1  1  0  0  0
  1  2  2  0  0  0
  2  3  1  0  0  0
  3  4  2  0  0  0
  4  5  1  0  0  0
  5  6  2  0  0  0
  5  7  1  0  0  0
  7  8  1  0  0  0
  8  9  2  0  0  0
  9 10  1  0  0  0
 11 10  1  0  0  0
 11 12  1  0  0  0
 12 13  1  0  0  0
 12 14  1  0  0  0
 14 15  2  0  0  0
 15 16  1  0  0  0
 16 17  2  0  0  0
 17 18  1  0  0  0
 18 19  2  0  0  0
 17 20  1  0  0  0
 20 21  1  0  0  0
 31 26  1  0  0  0
  6  1  1  0  0  0
 13  4  1  0  0  0
 11  7  1  0  0  0
 19 14  1  0  0  0
M  END
> <minimizedAffinity>
-3.53408

$$$$



 31 35  0  0  0  0  0  0  0  0999 V2000
   -5.0894   26.1939   12.2905 C   0  0  0  0  0  0  0  0  0  0  0  0
   -5.6363   24.9662   11.6245 C   0  0  0  0  0  0  0  0  0  0  0  0
   -6.9498   24.3940   12.0687 C   0  0  0  0  0  0  0  0  0  0  0  0
   -7.7164   25.0495   13.1790 C   0  0  0  0  0  0  0  0  0  0  0  0
   -7.1695   26.2773   13.8451 C   0  0  0  0  0  0  0  0  0  0  0  0
   -5.8559   26.8495   13.4008 C   0  0  0  0  0  0  0  0  0  0  0  0
   -7.9361   26.9328   14.9553 C   0  0  0  0  0  0  0  0  0  0  0  0
   -7.6508   28.1437   15.7933 C   0  0  0  0  0  0  0  0  0  0  0  0
   -8.7880   28.3198   16.7555 C   0  0  0  0  0  0  0  0  0  0  0  0
   -9.7761   27.2178   16.5121 C   0  0  0  0  0  0  0  0  0  0  0  0
   -9.2495   26.3606   15.3995 C   0  0  0  0  0  0  0  0  0  0  0  0
   -9.7964   25.1328   14.7335 C   0  0  0  0  0  0  0  0  0  0  0  0
   -9.0298   24.4773   13.6232 N   0  0  0  0  0  0  0  0  0  0  0  0
  -11.1099   24.5606   15.1777 C   0  0  0  0  0  0  0  0  0  0  0  0
  -11.1799   23.7158   16.4152 C   0  0  0  0  0  0  0  0  0  0  0  0
  -12.4934   23.1436   16.8593 C   0  0  0  0  0  0  0  0  0  0  0  0
  -13.7370   23.4162   16.0660 C   0  0  0  0  0  0  0  0  0  0  0  0
  -13.6669   24.2610   14.8285 C   0  0  0  0  0  0  0  0  0  0  0  0
  -12.3535   24.8332   14.3843 C   0  0  0  0  0  0  0  0  0  0  0  0
  -15.0504   22.8440   16.5102 S   0  0  0  0  0  0  0  0  0  0  0  0
  -15.3783   21.4084   16.2241 C   0  0  0  0  0  0  0  0  0  0  0  0
   -2.6384   25.8520   11.4997 C   0  0  0  0  0  0  0  0  0  0  0  0
   -2.8142   24.3655   11.5971 O   0  0  0  0  0  0  0  0  0  0  0  0
   -3.7759   26.7662   11.8463 N   0  0  0  0  0  0  0  0  0  0  0  0
   -2.3339   26.9225    8.7137 C   0  0  0  0  0  0  0  0  0  0  0  0
   -1.1727   26.9595    9.6624 C   0  0  0  0  0  0  0  0  0  0  0  0
    0.1408   27.5317    9.2182 C   0  0  0  0  0  0  0  0  0  0  0  0
    1.3021   27.5687   10.1669 C   0  0  0  0  0  0  0  0  0  0  0  0
    1.1498   27.0334   11.5599 C   0  0  0  0  0  0  0  0  0  0  0  0
   -0.1636   26.4612   12.0041 C   0  0  0  0  0  0  0  0  0  0  0  0
   -1.3249   26.4242   11.0554 C   0  0  0  0  0  0  0  0  0  0  0  0
 25 26  1  0  0  0
 26 27  2  0  0  0
 27 28  1  0  0  0
 28 29  2  0  0  0
 29 30  1  0  0  0
 30 31  2  0  0  0
 31 22  1  0  0  0
 22 23  2  0  0  0
 22 24  1  0  0  0
 24  1  1  0  0  0
  1  2  2  0  0  0
  2  3  1  0  0  0
  3  4  2  0  0  0
  4  5  1  0  0  0
  5  6  2  0  0  0
  5  7  1  0  0  0
  7  8  1  0  0  0
  8  9  2  0  0  0
  9 10  1  0  0  0
 11 10  1  0  0  0
 11 12  1  0  0  0
 12 13  1  0  0  0
 12 14  1  0  0  0
 14 15  2  0  0  0
 15 16  1  0  0  0
 16 17  2  0  0  0
 17 18  1  0  0  0
 18 19  2  0  0  0
 17 20  1  0  0  0
 20 21  1  0  0  0
 31 26  1  0  0  0
  6  1  1  0  0  0
 13  4  1  0  0  0
 11  7  1  0  0  0
 19 14  1  0  0  0
M  END
> <minimizedAffinity>
-3.53408

$$$$



 31 35  0  0  0  0  0  0  0  0999 V2000
   -5.3204   26.5831   13.2883 C   0  0  0  0  0  0  0  0  0  0  0  0
   -6.4042   27.1391   12.4129 C   0  0  0  0  0  0  0  0  0  0  0  0
   -7.8336   26.7521   12.6516 C   0  0  0  0  0  0  0  0  0  0  0  0
   -8.1793   25.8091   13.7659 C   0  0  0  0  0  0  0  0  0  0  0  0
   -7.0954   25.2532   14.6413 C   0  0  0  0  0  0  0  0  0  0  0  0
   -5.6660   25.6402   14.4025 C   0  0  0  0  0  0  0  0  0  0  0  0
   -7.4411   24.3103   15.7555 C   0  0  0  0  0  0  0  0  0  0  0  0
   -6.5940   23.6069   16.7741 C   0  0  0  0  0  0  0  0  0  0  0  0
   -7.5000   22.7852   17.6425 C   0  0  0  0  0  0  0  0  0  0  0  0
   -8.9069   22.9807   17.1605 C   0  0  0  0  0  0  0  0  0  0  0  0
   -8.8705   23.9233   15.9942 C   0  0  0  0  0  0  0  0  0  0  0  0
   -9.9543   24.4793   15.1188 C   0  0  0  0  0  0  0  0  0  0  0  0
   -9.6086   25.4222   14.0047 N   0  0  0  0  0  0  0  0  0  0  0  0
  -11.3837   24.0923   15.3576 C   0  0  0  0  0  0  0  0  0  0  0  0
  -12.4656   24.6347   14.4714 C   0  0  0  0  0  0  0  0  0  0  0  0
  -13.8950   24.2477   14.7103 C   0  0  0  0  0  0  0  0  0  0  0  0
  -14.2426   23.3183   15.8352 C   0  0  0  0  0  0  0  0  0  0  0  0
  -13.1606   22.7760   16.7214 C   0  0  0  0  0  0  0  0  0  0  0  0
  -11.7313   23.1629   16.4826 C   0  0  0  0  0  0  0  0  0  0  0  0
  -15.6719   22.9314   16.0740 S   0  0  0  0  0  0  0  0  0  0  0  0
  -15.9977   21.5907   16.6627 C   0  0  0  0  0  0  0  0  0  0  0  0
   -2.9860   26.0573   12.2763 C   0  0  0  0  0  0  0  0  0  0  0  0
   -3.5104   24.7576   11.7418 O   0  0  0  0  0  0  0  0  0  0  0  0
   -3.8910   26.9701   13.0495 N   0  0  0  0  0  0  0  0  0  0  0  0
    0.9061   27.0985    8.9950 C   0  0  0  0  0  0  0  0  0  0  0  0
    0.3895   26.9649   10.3968 C   0  0  0  0  0  0  0  0  0  0  0  0
    1.3023   27.2182   11.5599 C   0  0  0  0  0  0  0  0  0  0  0  0
    0.7856   27.0846   12.9617 C   0  0  0  0  0  0  0  0  0  0  0  0
   -0.6439   26.6976   13.2005 C   0  0  0  0  0  0  0  0  0  0  0  0
   -1.5566   26.4443   12.0375 C   0  0  0  0  0  0  0  0  0  0  0  0
   -1.0399   26.5779   10.6356 C   0  0  0  0  0  0  0  0  0  0  0  0
 25 26  1  0  0  0
 26 27  2  0  0  0
 27 28  1  0  0  0
 28 29  2  0  0  0
 29 30  1  0  0  0
 30 31  2  0  0  0
 30 22  1  0  0  0
 22 23  2  0  0  0
 22 24  1  0  0  0
 24  1  1  0  0  0
  1  2  2  0  0  0
  2  3  1  0  0  0
  3  4  2  0  0  0
  4  5  1  0  0  0
  5  6  2  0  0  0
  5  7  1  0  0  0
  7  8  1  0  0  0
  8  9  2  0  0  0
  9 10  1  0  0  0
 11 10  1  0  0  0
 11 12  1  0  0  0
 12 13  1  0  0  0
 12 14  1  0  0  0
 14 15  2  0  0  0
 15 16  1  0  0  0
 16 17  2  0  0  0
 17 18  1  0  0  0
 18 19  2  0  0  0
 17 20  1  0  0  0
 20 21  1  0  0  0
 31 26  1  0  0  0
  6  1  1  0  0  0
 13  4  1  0  0  0
 11  7  1  0  0  0
 19 14  1  0  0  0
M  END
> <minimizedAffinity>
6.43047

$$$$



 27 29  0  0  0  0  0  0  0  0999 V2000
   -7.2072   27.6479   14.3929 C   0  0  0  0  0  0  0  0  0  0  0  0
   -7.4489   28.2663   15.7379 C   0  0  0  0  0  0  0  0  0  0  0  0
   -7.6905   28.8846   17.0829 Cl  0  0  0  0  0  0  0  0  0  0  0  0
   -8.9110   28.3796   15.4231 Cl  0  0  0  0  0  0  0  0  0  0  0  0
   -5.9867   28.1529   16.0527 Cl  0  0  0  0  0  0  0  0  0  0  0  0
   -5.0485   26.6703   13.3276 C   0  0  0  0  0  0  0  0  0  0  0  0
   -5.5171   25.2826   13.6518 O   0  0  0  0  0  0  0  0  0  0  0  0
   -5.8936   27.8529   13.6982 N   0  0  0  0  0  0  0  0  0  0  0  0
   -3.6001   26.5545   11.1739 C   0  0  0  0  0  0  0  0  0  0  0  0
   -3.7350   26.8753   12.6330 C   0  0  0  0  0  0  0  0  0  0  0  0
    0.3406   27.1695    9.0901 C   0  0  0  0  0  0  0  0  0  0  0  0
   -0.9225   27.0595    8.2886 C   0  0  0  0  0  0  0  0  0  0  0  0
   -2.2361   26.8545    8.9831 C   0  0  0  0  0  0  0  0  0  0  0  0
   -2.2865   26.7595   10.4792 C   0  0  0  0  0  0  0  0  0  0  0  0
   -1.0234   26.8695   11.2808 C   0  0  0  0  0  0  0  0  0  0  0  0
    0.2902   27.0745   10.5862 C   0  0  0  0  0  0  0  0  0  0  0  0
   -8.2791   26.8244   13.7425 N   0  0  0  0  0  0  0  0  0  0  0  0
   -9.0404   25.8133   14.5475 C   0  0  0  0  0  0  0  0  0  0  0  0
  -10.5239   25.6780   14.3721 C   0  0  0  0  0  0  0  0  0  0  0  0
  -11.2853   24.6669   15.1771 C   0  0  0  0  0  0  0  0  0  0  0  0
  -10.5630   23.7911   16.1576 C   0  0  0  0  0  0  0  0  0  0  0  0
  -11.3244   22.7801   16.9627 C   0  0  0  0  0  0  0  0  0  0  0  0
  -10.6021   21.9043   17.9431 C   0  0  0  0  0  0  0  0  0  0  0  0
   -9.1186   22.0396   18.1186 C   0  0  0  0  0  0  0  0  0  0  0  0
   -8.3573   23.0507   17.3136 C   0  0  0  0  0  0  0  0  0  0  0  0
   -9.0795   23.9264   16.3331 C   0  0  0  0  0  0  0  0  0  0  0  0
   -8.3182   24.9376   15.5280 C   0  0  0  0  0  0  0  0  0  0  0  0
 11 12  2  0  0  0
 12 13  1  0  0  0
 13 14  2  0  0  0
 14 15  1  0  0  0
 15 16  2  0  0  0
 14  9  1  0  0  0
  9 10  2  0  0  0
 10  6  1  0  0  0
  6  7  2  0  0  0
  6  8  1  0  0  0
  1  8  1  0  0  0
  1  2  1  0  0  0
  2  3  1  0  0  0
  2  4  1  0  0  0
  2  5  1  0  0  0
  1 17  1  0  0  0
 17 18  1  0  0  0
 18 19  2  0  0  0
 19 20  1  0  0  0
 20 21  2  0  0  0
 21 22  1  0  0  0
 22 23  2  0  0  0
 23 24  1  0  0  0
 24 25  2  0  0  0
 25 26  1  0  0  0
 26 27  2  0  0  0
 16 11  1  0  0  0
 27 18  1  0  0  0
 26 21  1  0  0  0
M  END
> <minimizedAffinity>
-9.53969

$$$$



 27 31  0  0  0  0  0  0  0  0999 V2000
   -3.6977   26.4657   12.8032 C   0  0  0  0  0  0  0  0  0  0  0  0
   -4.1076   25.1663   12.1759 C   0  0  0  0  0  0  0  0  0  0  0  0
   -5.4546   24.5795   12.4782 C   0  0  0  0  0  0  0  0  0  0  0  0
   -6.3916   25.2921   13.4080 C   0  0  0  0  0  0  0  0  0  0  0  0
   -5.9815   26.5915   14.0353 C   0  0  0  0  0  0  0  0  0  0  0  0
   -4.6346   27.1783   13.7329 C   0  0  0  0  0  0  0  0  0  0  0  0
   -6.9185   27.3040   14.9650 C   0  0  0  0  0  0  0  0  0  0  0  0
   -6.7916   28.5901   15.7265 C   0  0  0  0  0  0  0  0  0  0  0  0
   -8.0601   28.7981   16.4995 C   0  0  0  0  0  0  0  0  0  0  0  0
   -8.9710   27.6406   16.2158 C   0  0  0  0  0  0  0  0  0  0  0  0
   -8.2654   26.7172   15.2674 C   0  0  0  0  0  0  0  0  0  0  0  0
   -8.6754   25.4178   14.6401 C   0  0  0  0  0  0  0  0  0  0  0  0
   -7.7384   24.7053   13.7104 N   0  0  0  0  0  0  0  0  0  0  0  0
  -10.0223   24.8310   14.9424 C   0  0  0  0  0  0  0  0  0  0  0  0
  -10.1877   23.8886   16.0976 C   0  0  0  0  0  0  0  0  0  0  0  0
  -11.5346   23.3018   16.4000 C   0  0  0  0  0  0  0  0  0  0  0  0
  -12.7163   23.6574   15.5471 C   0  0  0  0  0  0  0  0  0  0  0  0
  -12.5509   24.5998   14.3919 C   0  0  0  0  0  0  0  0  0  0  0  0
  -11.2040   25.1866   14.0895 C   0  0  0  0  0  0  0  0  0  0  0  0
  -14.0631   23.0706   15.8495 Br  0  0  0  0  0  0  0  0  0  0  0  0
   -2.3507   27.0525   12.5008 N   0  0  0  0  0  0  0  0  0  0  0  0
   -0.8020   27.0722    8.2757 C   0  0  0  0  0  0  0  0  0  0  0  0
   -2.2656   26.8736    8.5371 C   0  0  0  0  0  0  0  0  0  0  0  0
   -2.7819   26.8670    9.9455 C   0  0  0  0  0  0  0  0  0  0  0  0
   -1.8345   27.0590   11.0925 C   0  0  0  0  0  0  0  0  0  0  0  0
   -0.3709   27.2576   10.8311 C   0  0  0  0  0  0  0  0  0  0  0  0
    0.1454   27.2642    9.4228 C   0  0  0  0  0  0  0  0  0  0  0  0
 22 23  2  0  0  0
 23 24  1  0  0  0
 24 25  2  0  0  0
 25 26  1  0  0  0
 26 27  2  0  0  0
 25 21  1  0  0  0
 21  1  1  0  0  0
  1  2  2  0  0  0
  2  3  1  0  0  0
  3  4  2  0  0  0
  4  5  1  0  0  0
  5  6  2  0  0  0
  5  7  1  0  0  0
  7  8  1  0  0  0
  8  9  2  0  0  0
  9 10  1  0  0  0
 11 10  1  0  0  0
 11 12  1  0  0  0
 12 13  1  0  0  0
 12 14  1  0  0  0
 14 15  2  0  0  0
 15 16  1  0  0  0
 16 17  2  0  0  0
 17 18  1  0  0  0
 18 19  2  0  0  0
 17 20  1  0  0  0
 27 22  1  0  0  0
  6  1  1  0  0  0
 13  4  1  0  0  0
 11  7  1  0  0  0
 19 14  1  0  0  0
M  END
> <minimizedAffinity>
-10.87418

$$$$



 31 35  0  0  0  0  0  0  0  0999 V2000
   -3.7999   26.5569   12.9648 C   0  0  0  0  0  0  0  0  0  0  0  0
   -4.1314   25.2313   12.3462 C   0  0  0  0  0  0  0  0  0  0  0  0
   -5.4468   24.5737   12.6416 C   0  0  0  0  0  0  0  0  0  0  0  0
   -6.4308   25.2419   13.5557 C   0  0  0  0  0  0  0  0  0  0  0  0
   -6.0992   26.5676   14.1743 C   0  0  0  0  0  0  0  0  0  0  0  0
   -4.7837   27.2251   13.8788 C   0  0  0  0  0  0  0  0  0  0  0  0
   -7.0831   27.2357   15.0884 C   0  0  0  0  0  0  0  0  0  0  0  0
   -7.0349   28.5337   15.8386 C   0  0  0  0  0  0  0  0  0  0  0  0
   -8.3205   28.6784   16.5977 C   0  0  0  0  0  0  0  0  0  0  0  0
   -9.1633   27.4698   16.3167 C   0  0  0  0  0  0  0  0  0  0  0  0
   -8.3986   26.5782   15.3838 C   0  0  0  0  0  0  0  0  0  0  0  0
   -8.7301   25.2525   14.7652 C   0  0  0  0  0  0  0  0  0  0  0  0
   -7.7461   24.5844   13.8512 N   0  0  0  0  0  0  0  0  0  0  0  0
  -10.0455   24.5949   15.0607 C   0  0  0  0  0  0  0  0  0  0  0  0
  -10.2260   23.8151   16.3293 C   0  0  0  0  0  0  0  0  0  0  0  0
  -11.5415   23.1576   16.6246 C   0  0  0  0  0  0  0  0  0  0  0  0
  -12.6764   23.2798   15.6515 C   0  0  0  0  0  0  0  0  0  0  0  0
  -12.4958   24.0596   14.3828 C   0  0  0  0  0  0  0  0  0  0  0  0
  -11.1804   24.7171   14.0874 C   0  0  0  0  0  0  0  0  0  0  0  0
  -13.6307   24.1818   13.4097 Cl  0  0  0  0  0  0  0  0  0  0  0  0
   -1.2234   26.6760   13.2774 C   0  0  0  0  0  0  0  0  0  0  0  0
   -1.2777   25.4799   14.1809 O   0  0  0  0  0  0  0  0  0  0  0  0
   -2.4845   27.2145   12.6694 N   0  0  0  0  0  0  0  0  0  0  0  0
    0.0920   27.3335   12.9820 C   0  0  0  0  0  0  0  0  0  0  0  0
    0.7111   27.1953   11.6228 C   0  0  0  0  0  0  0  0  0  0  0  0
   -1.6135   25.2886    8.2746 C   0  0  0  0  0  0  0  0  0  0  0  0
   -0.7984   24.4367    9.2018 C   0  0  0  0  0  0  0  0  0  0  0  0
   -0.0235   25.0722   10.3179 C   0  0  0  0  0  0  0  0  0  0  0  0
   -0.0637   26.5597   10.5067 C   0  0  0  0  0  0  0  0  0  0  0  0
   -0.8788   27.4117    9.5795 C   0  0  0  0  0  0  0  0  0  0  0  0
   -1.6537   26.7761    8.4634 C   0  0  0  0  0  0  0  0  0  0  0  0
 26 27  2  0  0  0
 27 28  1  0  0  0
 28 29  2  0  0  0
 29 30  1  0  0  0
 30 31  2  0  0  0
 29 25  1  0  0  0
 25 24  1  0  0  0
 24 21  1  0  0  0
 21 22  2  0  0  0
 21 23  1  0  0  0
 23  1  1  0  0  0
  1  2  2  0  0  0
  2  3  1  0  0  0
  3  4  2  0  0  0
  4  5  1  0  0  0
  5  6  2  0  0  0
  5  7  1  0  0  0
  7  8  1  0  0  0
  8  9  2  0  0  0
  9 10  1  0  0  0
 11 10  1  0  0  0
 11 12  1  0  0  0
 12 13  1  0  0  0
 12 14  1  0  0  0
 14 15  2  0  0  0
 15 16  1  0  0  0
 16 17  2  0  0  0
 17 18  1  0  0  0
 18 19  2  0  0  0
 18 20  1  0  0  0
 31 26  1  0  0  0
  6  1  1  0  0  0
 13  4  1  0  0  0
 11  7  1  0  0  0
 19 14  1  0  0  0
M  END
> <minimizedAffinity>
-10.76420

$$$$



 27 31  0  0  0  0  0  0  0  0999 V2000
   -3.8251   26.4802   12.7968 C   0  0  0  0  0  0  0  0  0  0  0  0
   -4.2189   25.1758   12.1694 C   0  0  0  0  0  0  0  0  0  0  0  0
   -5.5573   24.5709   12.4738 C   0  0  0  0  0  0  0  0  0  0  0  0
   -6.5021   25.2705   13.4056 C   0  0  0  0  0  0  0  0  0  0  0  0
   -6.1083   26.5749   14.0330 C   0  0  0  0  0  0  0  0  0  0  0  0
   -4.7698   27.1797   13.7285 C   0  0  0  0  0  0  0  0  0  0  0  0
   -7.0530   27.2744   14.9647 C   0  0  0  0  0  0  0  0  0  0  0  0
   -6.9419   28.5617   15.7267 C   0  0  0  0  0  0  0  0  0  0  0  0
   -8.2118   28.7524   16.5020 C   0  0  0  0  0  0  0  0  0  0  0  0
   -9.1077   27.5830   16.2192 C   0  0  0  0  0  0  0  0  0  0  0  0
   -8.3915   26.6696   15.2691 C   0  0  0  0  0  0  0  0  0  0  0  0
   -8.7853   25.3652   14.6417 C   0  0  0  0  0  0  0  0  0  0  0  0
   -7.8405   24.6657   13.7100 N   0  0  0  0  0  0  0  0  0  0  0  0
  -10.1237   24.7604   14.9461 C   0  0  0  0  0  0  0  0  0  0  0  0
  -11.3213   25.1374   14.1253 C   0  0  0  0  0  0  0  0  0  0  0  0
  -12.6598   24.5325   14.4298 C   0  0  0  0  0  0  0  0  0  0  0  0
  -12.8007   23.5506   15.5550 C   0  0  0  0  0  0  0  0  0  0  0  0
  -11.6030   23.1736   16.3757 C   0  0  0  0  0  0  0  0  0  0  0  0
  -10.2646   23.7784   16.0714 C   0  0  0  0  0  0  0  0  0  0  0  0
  -14.1391   22.9457   15.8594 Cl  0  0  0  0  0  0  0  0  0  0  0  0
   -2.4867   27.0850   12.4924 N   0  0  0  0  0  0  0  0  0  0  0  0
   -0.9183   27.0717    8.2745 C   0  0  0  0  0  0  0  0  0  0  0  0
    0.0236   27.2736    9.4243 C   0  0  0  0  0  0  0  0  0  0  0  0
   -0.4992   27.2780   10.8303 C   0  0  0  0  0  0  0  0  0  0  0  0
   -1.9638   27.0806   11.0865 C   0  0  0  0  0  0  0  0  0  0  0  0
   -2.9057   26.8786    9.9367 C   0  0  0  0  0  0  0  0  0  0  0  0
   -2.3830   26.8742    8.5308 C   0  0  0  0  0  0  0  0  0  0  0  0
 22 23  2  0  0  0
 23 24  1  0  0  0
 24 25  2  0  0  0
 25 26  1  0  0  0
 26 27  2  0  0  0
 25 21  1  0  0  0
 21  1  1  0  0  0
  1  2  2  0  0  0
  2  3  1  0  0  0
  3  4  2  0  0  0
  4  5  1  0  0  0
  5  6  2  0  0  0
  5  7  1  0  0  0
  7  8  1  0  0  0
  8  9  2  0  0  0
  9 10  1  0  0  0
 11 10  1  0  0  0
 11 12  1  0  0  0
 12 13  1  0  0  0
 12 14  1  0  0  0
 14 15  2  0  0  0
 15 16  1  0  0  0
 16 17  2  0  0  0
 17 18  1  0  0  0
 18 19  2  0  0  0
 17 20  1  0  0  0
 27 22  1  0  0  0
  6  1  1  0  0  0
 13  4  1  0  0  0
 11  7  1  0  0  0
 19 14  1  0  0  0
M  END
> <minimizedAffinity>
-11.18865

$$$$



 31 35  0  0  0  0  0  0  0  0999 V2000
   -3.7765   26.5811   13.0467 C   0  0  0  0  0  0  0  0  0  0  0  0
   -4.1358   25.2816   12.3894 C   0  0  0  0  0  0  0  0  0  0  0  0
   -5.4748   24.6562   12.6461 C   0  0  0  0  0  0  0  0  0  0  0  0
   -6.4546   25.3304   13.5603 C   0  0  0  0  0  0  0  0  0  0  0  0
   -6.0953   26.6300   14.2176 C   0  0  0  0  0  0  0  0  0  0  0  0
   -4.7562   27.2553   13.9608 C   0  0  0  0  0  0  0  0  0  0  0  0
   -7.0750   27.3041   15.1317 C   0  0  0  0  0  0  0  0  0  0  0  0
   -7.0019   28.5811   15.9153 C   0  0  0  0  0  0  0  0  0  0  0  0
   -8.2958   28.7449   16.6563 C   0  0  0  0  0  0  0  0  0  0  0  0
   -9.1685   27.5692   16.3307 C   0  0  0  0  0  0  0  0  0  0  0  0
   -8.4141   26.6787   15.3885 C   0  0  0  0  0  0  0  0  0  0  0  0
   -8.7733   25.3792   14.7311 C   0  0  0  0  0  0  0  0  0  0  0  0
   -7.7936   24.7051   13.8170 N   0  0  0  0  0  0  0  0  0  0  0  0
  -10.1123   24.7538   14.9878 C   0  0  0  0  0  0  0  0  0  0  0  0
  -11.2915   25.1320   14.1413 C   0  0  0  0  0  0  0  0  0  0  0  0
  -12.6305   24.5065   14.3981 C   0  0  0  0  0  0  0  0  0  0  0  0
  -12.7904   23.5029   15.5014 C   0  0  0  0  0  0  0  0  0  0  0  0
  -11.6112   23.1248   16.3479 C   0  0  0  0  0  0  0  0  0  0  0  0
  -10.2722   23.7502   16.0912 C   0  0  0  0  0  0  0  0  0  0  0  0
  -14.1293   22.8776   15.7581 F   0  0  0  0  0  0  0  0  0  0  0  0
   -1.1970   26.5820   13.3565 C   0  0  0  0  0  0  0  0  0  0  0  0
   -1.2954   25.3320   14.1799 O   0  0  0  0  0  0  0  0  0  0  0  0
   -2.4375   27.2065   12.7900 N   0  0  0  0  0  0  0  0  0  0  0  0
    0.1420   27.2074   13.0998 C   0  0  0  0  0  0  0  0  0  0  0  0
    0.7325   27.1762   11.7214 C   0  0  0  0  0  0  0  0  0  0  0  0
   -1.6051   25.3986    8.3117 C   0  0  0  0  0  0  0  0  0  0  0  0
   -0.7446   24.5195    9.1699 C   0  0  0  0  0  0  0  0  0  0  0  0
    0.0346   25.1120   10.3064 C   0  0  0  0  0  0  0  0  0  0  0  0
   -0.0467   26.5837   10.5848 C   0  0  0  0  0  0  0  0  0  0  0  0
   -0.9072   27.4628    9.7266 C   0  0  0  0  0  0  0  0  0  0  0  0
   -1.6864   26.8703    8.5900 C   0  0  0  0  0  0  0  0  0  0  0  0
 26 27  2  0  0  0
 27 28  1  0  0  0
 28 29  2  0  0  0
 29 30  1  0  0  0
 30 31  2  0  0  0
 29 25  1  0  0  0
 25 24  1  0  0  0
 24 21  1  0  0  0
 21 22  2  0  0  0
 21 23  1  0  0  0
 23  1  1  0  0  0
  1  2  2  0  0  0
  2  3  1  0  0  0
  3  4  2  0  0  0
  4  5  1  0  0  0
  5  6  2  0  0  0
  5  7  1  0  0  0
  7  8  1  0  0  0
  8  9  2  0  0  0
  9 10  1  0  0  0
 11 10  1  0  0  0
 11 12  1  0  0  0
 12 13  1  0  0  0
 12 14  1  0  0  0
 14 15  2  0  0  0
 15 16  1  0  0  0
 16 17  2  0  0  0
 17 18  1  0  0  0
 18 19  2  0  0  0
 17 20  1  0  0  0
 31 26  1  0  0  0
  6  1  1  0  0  0
 13  4  1  0  0  0
 11  7  1  0  0  0
 19 14  1  0  0  0
M  END
> <minimizedAffinity>
-10.79915

$$$$



 31 35  0  0  0  0  0  0  0  0999 V2000
   -5.0894   26.1939   12.2905 C   0  0  0  0  0  0  0  0  0  0  0  0
   -5.6363   24.9662   11.6245 C   0  0  0  0  0  0  0  0  0  0  0  0
   -6.9498   24.3940   12.0687 C   0  0  0  0  0  0  0  0  0  0  0  0
   -7.7164   25.0495   13.1790 C   0  0  0  0  0  0  0  0  0  0  0  0
   -7.1695   26.2773   13.8451 C   0  0  0  0  0  0  0  0  0  0  0  0
   -5.8559   26.8495   13.4008 C   0  0  0  0  0  0  0  0  0  0  0  0
   -7.9361   26.9328   14.9553 C   0  0  0  0  0  0  0  0  0  0  0  0
   -7.6508   28.1437   15.7933 C   0  0  0  0  0  0  0  0  0  0  0  0
   -8.7880   28.3198   16.7555 C   0  0  0  0  0  0  0  0  0  0  0  0
   -9.7761   27.2178   16.5121 C   0  0  0  0  0  0  0  0  0  0  0  0
   -9.2495   26.3606   15.3995 C   0  0  0  0  0  0  0  0  0  0  0  0
   -9.7964   25.1328   14.7335 C   0  0  0  0  0  0  0  0  0  0  0  0
   -9.0298   24.4773   13.6232 N   0  0  0  0  0  0  0  0  0  0  0  0
  -11.1099   24.5606   15.1777 C   0  0  0  0  0  0  0  0  0  0  0  0
  -11.1799   23.7158   16.4152 C   0  0  0  0  0  0  0  0  0  0  0  0
  -12.4934   23.1436   16.8593 C   0  0  0  0  0  0  0  0  0  0  0  0
  -13.7370   23.4162   16.0660 C   0  0  0  0  0  0  0  0  0  0  0  0
  -13.6669   24.2610   14.8285 C   0  0  0  0  0  0  0  0  0  0  0  0
  -12.3535   24.8332   14.3843 C   0  0  0  0  0  0  0  0  0  0  0  0
  -15.0504   22.8440   16.5102 S   0  0  0  0  0  0  0  0  0  0  0  0
  -15.3783   21.4084   16.2241 C   0  0  0  0  0  0  0  0  0  0  0  0
   -2.6384   25.8520   11.4997 C   0  0  0  0  0  0  0  0  0  0  0  0
   -2.8142   24.3655   11.5971 O   0  0  0  0  0  0  0  0  0  0  0  0
   -3.7759   26.7662   11.8463 N   0  0  0  0  0  0  0  0  0  0  0  0
   -2.3339   26.9225    8.7137 C   0  0  0  0  0  0  0  0  0  0  0  0
   -1.1727   26.9595    9.6624 C   0  0  0  0  0  0  0  0  0  0  0  0
    0.1408   27.5317    9.2182 C   0  0  0  0  0  0  0  0  0  0  0  0
    1.3021   27.5687   10.1669 C   0  0  0  0  0  0  0  0  0  0  0  0
    1.1498   27.0334   11.5599 C   0  0  0  0  0  0  0  0  0  0  0  0
   -0.1636   26.4612   12.0041 C   0  0  0  0  0  0  0  0  0  0  0  0
   -1.3249   26.4242   11.0554 C   0  0  0  0  0  0  0  0  0  0  0  0
 25 26  1  0  0  0
 26 27  2  0  0  0
 27 28  1  0  0  0
 28 29  2  0  0  0
 29 30  1  0  0  0
 30 31  2  0  0  0
 31 22  1  0  0  0
 22 23  2  0  0  0
 22 24  1  0  0  0
 24  1  1  0  0  0
  1  2  2  0  0  0
  2  3  1  0  0  0
  3  4  2  0  0  0
  4  5  1  0  0  0
  5  6  2  0  0  0
  5  7  1  0  0  0
  7  8  1  0  0  0
  8  9  2  0  0  0
  9 10  1  0  0  0
 11 10  1  0  0  0
 11 12  1  0  0  0
 12 13  1  0  0  0
 12 14  1  0  0  0
 14 15  2  0  0  0
 15 16  1  0  0  0
 16 17  2  0  0  0
 17 18  1  0  0  0
 18 19  2  0  0  0
 17 20  1  0  0  0
 20 21  1  0  0  0
 31 26  1  0  0  0
  6  1  1  0  0  0
 13  4  1  0  0  0
 11  7  1  0  0  0
 19 14  1  0  0  0
M  END
> <minimizedAffinity>
-3.53408

$$$$



 33 38  0  0  0  0  0  0  0  0999 V2000
   -5.1045   26.0369   12.2939 C   0  0  0  0  0  0  0  0  0  0  0  0
   -5.6998   24.8011   11.6870 C   0  0  0  0  0  0  0  0  0  0  0  0
   -7.0384   24.3079   12.1507 C   0  0  0  0  0  0  0  0  0  0  0  0
   -7.7817   25.0506   13.2213 C   0  0  0  0  0  0  0  0  0  0  0  0
   -7.1862   26.2864   13.8282 C   0  0  0  0  0  0  0  0  0  0  0  0
   -5.8476   26.7796   13.3644 C   0  0  0  0  0  0  0  0  0  0  0  0
   -7.9295   27.0291   14.8987 C   0  0  0  0  0  0  0  0  0  0  0  0
   -7.5970   28.2678   15.6765 C   0  0  0  0  0  0  0  0  0  0  0  0
   -8.7301   28.5403   16.6208 C   0  0  0  0  0  0  0  0  0  0  0  0
   -9.7629   27.4699   16.4267 C   0  0  0  0  0  0  0  0  0  0  0  0
   -9.2680   26.5359   15.3624 C   0  0  0  0  0  0  0  0  0  0  0  0
   -9.8634   25.3001   14.7555 C   0  0  0  0  0  0  0  0  0  0  0  0
   -9.1202   24.5575   13.6850 N   0  0  0  0  0  0  0  0  0  0  0  0
  -11.2020   24.8069   15.2192 C   0  0  0  0  0  0  0  0  0  0  0  0
  -12.1025   25.7112   16.0076 C   0  0  0  0  0  0  0  0  0  0  0  0
  -13.4410   25.2180   16.4713 C   0  0  0  0  0  0  0  0  0  0  0  0
  -13.8792   23.8206   16.1465 C   0  0  0  0  0  0  0  0  0  0  0  0
  -15.2177   23.3275   16.6102 C   0  0  0  0  0  0  0  0  0  0  0  0
  -15.6559   21.9301   16.2854 C   0  0  0  0  0  0  0  0  0  0  0  0
  -14.7554   21.0260   15.4970 C   0  0  0  0  0  0  0  0  0  0  0  0
  -13.4168   21.5191   15.0334 C   0  0  0  0  0  0  0  0  0  0  0  0
  -12.9787   22.9165   15.3581 C   0  0  0  0  0  0  0  0  0  0  0  0
  -11.6401   23.4096   14.8944 C   0  0  0  0  0  0  0  0  0  0  0  0
   -2.7128   25.5511   11.4027 C   0  0  0  0  0  0  0  0  0  0  0  0
   -2.9983   24.0790   11.4388 O   0  0  0  0  0  0  0  0  0  0  0  0
   -3.7659   26.5301   11.8302 N   0  0  0  0  0  0  0  0  0  0  0  0
    0.1342   28.5700    8.2753 C   0  0  0  0  0  0  0  0  0  0  0  0
    0.0493   27.5538    9.3753 C   0  0  0  0  0  0  0  0  0  0  0  0
    1.3029   27.0307   10.0116 C   0  0  0  0  0  0  0  0  0  0  0  0
    1.2179   26.0145   11.1116 C   0  0  0  0  0  0  0  0  0  0  0  0
   -0.1207   25.5213   11.5753 C   0  0  0  0  0  0  0  0  0  0  0  0
   -1.3743   26.0443   10.9390 C   0  0  0  0  0  0  0  0  0  0  0  0
   -1.2893   27.0606    9.8389 C   0  0  0  0  0  0  0  0  0  0  0  0
 27 28  1  0  0  0
 28 29  2  0  0  0
 29 30  1  0  0  0
 30 31  2  0  0  0
 31 32  1  0  0  0
 32 33  2  0  0  0
 32 24  1  0  0  0
 24 25  2  0  0  0
 24 26  1  0  0  0
 26  1  1  0  0  0
  1  2  2  0  0  0
  2  3  1  0  0  0
  3  4  2  0  0  0
  4  5  1  0  0  0
  5  6  2  0  0  0
  5  7  1  0  0  0
  7  8  1  0  0  0
  8  9  2  0  0  0
  9 10  1  0  0  0
 11 10  1  0  0  0
 11 12  1  0  0  0
 12 13  1  0  0  0
 12 14  1  0  0  0
 14 15  2  0  0  0
 15 16  1  0  0  0
 16 17  2  0  0  0
 17 18  1  0  0  0
 18 19  2  0  0  0
 19 20  1  0  0  0
 20 21  2  0  0  0
 21 22  1  0  0  0
 22 23  2  0  0  0
 33 28  1  0  0  0
  6  1  1  0  0  0
 13  4  1  0  0  0
 11  7  1  0  0  0
 23 14  1  0  0  0
 22 17  1  0  0  0
M  END
> <minimizedAffinity>
1.34665

$$$$



 31 34  0  0  0  0  0  0  0  0999 V2000
   -8.4277   26.9332   16.7126 C   0  0  0  0  0  0  0  0  0  0  0  0
   -7.3253   27.4113   15.8147 C   0  0  0  0  0  0  0  0  0  0  0  0
   -6.5622   28.6942   15.9619 C   0  0  0  0  0  0  0  0  0  0  0  0
   -5.5577   28.7662   14.8501 S   0  0  0  0  0  0  0  0  0  0  0  0
   -5.7001   27.5277   14.0160 C   0  0  0  0  0  0  0  0  0  0  0  0
   -6.7925   26.6903   14.6121 C   0  0  0  0  0  0  0  0  0  0  0  0
   -6.7675   29.7244   17.0327 C   0  0  0  0  0  0  0  0  0  0  0  0
   -4.8919   27.1865   12.7993 N   0  0  0  0  0  0  0  0  0  0  0  0
   -3.3951   27.2746   12.8441 C   0  0  0  0  0  0  0  0  0  0  0  0
   -2.7065   27.7038   14.1057 O   0  0  0  0  0  0  0  0  0  0  0  0
   -2.5869   26.9334   11.6274 C   0  0  0  0  0  0  0  0  0  0  0  0
   -3.2380   26.9118   10.2763 C   0  0  0  0  0  0  0  0  0  0  0  0
   -2.4298   26.5706    9.0596 C   0  0  0  0  0  0  0  0  0  0  0  0
   -0.9704   26.2511    9.1941 C   0  0  0  0  0  0  0  0  0  0  0  0
   -0.3192   26.2727   10.5452 C   0  0  0  0  0  0  0  0  0  0  0  0
   -1.1274   26.6138   11.7619 C   0  0  0  0  0  0  0  0  0  0  0  0
   -7.2685   25.3648   14.0962 C   0  0  0  0  0  0  0  0  0  0  0  0
   -8.4875   24.7229   14.6895 C   0  0  0  0  0  0  0  0  0  0  0  0
   -8.3779   23.9415   15.9653 C   0  0  0  0  0  0  0  0  0  0  0  0
   -9.5969   23.2996   16.5587 C   0  0  0  0  0  0  0  0  0  0  0  0
  -10.9254   23.4391   15.8762 C   0  0  0  0  0  0  0  0  0  0  0  0
  -11.0349   24.2204   14.6005 C   0  0  0  0  0  0  0  0  0  0  0  0
   -9.8160   24.8623   14.0071 C   0  0  0  0  0  0  0  0  0  0  0  0
  -12.1444   22.7972   16.4696 F   0  0  0  0  0  0  0  0  0  0  0  0
   -6.5255   24.6810   12.9868 N   0  0  0  0  0  0  0  0  0  0  0  0
   -5.1016   24.2550   13.1889 C   0  0  0  0  0  0  0  0  0  0  0  0
   -4.2585   23.8726   12.0087 C   0  0  0  0  0  0  0  0  0  0  0  0
   -2.8345   23.4466   12.2108 C   0  0  0  0  0  0  0  0  0  0  0  0
   -2.2537   23.4030   13.5931 C   0  0  0  0  0  0  0  0  0  0  0  0
   -3.0968   23.7855   14.7733 C   0  0  0  0  0  0  0  0  0  0  0  0
   -4.5208   24.2115   14.5712 C   0  0  0  0  0  0  0  0  0  0  0  0
  1  2  1  0  0  0
  2  3  2  0  0  0
  3  4  1  0  0  0
  4  5  1  0  0  0
  5  6  2  0  0  0
  6 17  1  0  0  0
 17 18  1  0  0  0
 18 19  2  0  0  0
 19 20  1  0  0  0
 20 21  2  0  0  0
 21 22  1  0  0  0
 22 23  2  0  0  0
 21 24  1  0  0  0
 17 25  1  0  0  0
 25 26  1  0  0  0
 26 27  2  0  0  0
 27 28  1  0  0  0
 28 29  2  0  0  0
 29 30  1  0  0  0
 30 31  2  0  0  0
  5  8  1  0  0  0
  8  9  1  0  0  0
  9 10  2  0  0  0
  9 11  1  0  0  0
 11 12  2  0  0  0
 12 13  1  0  0  0
 13 14  2  0  0  0
 14 15  1  0  0  0
 15 16  2  0  0  0
  3  7  1  0  0  0
  6  2  1  0  0  0
 23 18  1  0  0  0
 31 26  1  0  0  0
 16 11  1  0  0  0
M  END
> <minimizedAffinity>
-5.60063

$$$$



 29 33  0  0  0  0  0  0  0  0999 V2000
   -3.1648   25.8324   12.2092 C   0  0  0  0  0  0  0  0  0  0  0  0
    0.5126   25.7487   15.4008 C   0  0  0  0  0  0  0  0  0  0  0  0
    0.9397   24.3565   15.7604 C   0  0  0  0  0  0  0  0  0  0  0  0
    0.2447   23.1769   15.1477 C   0  0  0  0  0  0  0  0  0  0  0  0
   -0.8774   23.3894   14.1753 C   0  0  0  0  0  0  0  0  0  0  0  0
   -1.3045   24.7816   13.8157 C   0  0  0  0  0  0  0  0  0  0  0  0
   -0.6095   25.9612   14.4284 C   0  0  0  0  0  0  0  0  0  0  0  0
   -2.4344   24.6808   12.8341 C   0  0  0  0  0  0  0  0  0  0  0  0
   -2.7055   23.2264   12.5872 C   0  0  0  0  0  0  0  0  0  0  0  0
   -1.7433   22.4282   13.4161 N   0  0  0  0  0  0  0  0  0  0  0  0
   -2.7167   26.3746   10.8844 C   0  0  0  0  0  0  0  0  0  0  0  0
   -3.6114   26.8316    9.7706 C   0  0  0  0  0  0  0  0  0  0  0  0
   -2.7429   27.2945    8.6386 N   0  0  0  0  0  0  0  0  0  0  0  0
   -1.3114   27.1236    9.0528 C   0  0  0  0  0  0  0  0  0  0  0  0
   -1.2952   26.5551   10.4408 C   0  0  0  0  0  0  0  0  0  0  0  0
    0.0118   26.2751   11.1214 C   0  0  0  0  0  0  0  0  0  0  0  0
    1.3028   26.5638   10.4141 C   0  0  0  0  0  0  0  0  0  0  0  0
    1.2866   27.1323    9.0261 C   0  0  0  0  0  0  0  0  0  0  0  0
   -0.0205   27.4122    8.3455 C   0  0  0  0  0  0  0  0  0  0  0  0
   -4.3433   26.4416   12.9092 C   0  0  0  0  0  0  0  0  0  0  0  0
   -5.6118   25.6564   13.0641 C   0  0  0  0  0  0  0  0  0  0  0  0
   -6.7903   26.2657   13.7641 C   0  0  0  0  0  0  0  0  0  0  0  0
   -6.7002   27.6602   14.3092 C   0  0  0  0  0  0  0  0  0  0  0  0
   -5.4316   28.4455   14.1542 C   0  0  0  0  0  0  0  0  0  0  0  0
   -4.2531   27.8362   13.4542 C   0  0  0  0  0  0  0  0  0  0  0  0
   -7.8787   28.2695   15.0091 O   0  0  0  0  0  0  0  0  0  0  0  0
   -7.7594   28.7023   16.4404 C   0  0  0  0  0  0  0  0  0  0  0  0
   -6.4296   29.1313   16.9858 F   0  0  0  0  0  0  0  0  0  0  0  0
   -8.9700   28.7061   17.3261 F   0  0  0  0  0  0  0  0  0  0  0  0
  2  3  2  0  0  0
  3  4  1  0  0  0
  4  5  2  0  0  0
  5  6  1  0  0  0
  6  7  2  0  0  0
  6  8  1  0  0  0
  8  9  2  0  0  0
  9 10  1  0  0  0
  8  1  1  0  0  0
  1 20  1  0  0  0
 20 21  2  0  0  0
 21 22  1  0  0  0
 22 23  2  0  0  0
 23 24  1  0  0  0
 24 25  2  0  0  0
 23 26  1  0  0  0
 26 27  1  0  0  0
 27 28  1  0  0  0
 27 29  1  0  0  0
  1 11  1  0  0  0
 11 12  2  0  0  0
 12 13  1  0  0  0
 13 14  1  0  0  0
 14 15  2  0  0  0
 15 16  1  0  0  0
 16 17  2  0  0  0
 17 18  1  0  0  0
 18 19  2  0  0  0
  7  2  1  0  0  0
 10  5  1  0  0  0
 25 20  1  0  0  0
 15 11  1  0  0  0
 19 14  1  0  0  0
M  END
> <minimizedAffinity>
-8.70591

$$$$



 32 36  0  0  0  0  0  0  0  0999 V2000
   -6.8508   25.9318   14.6869 C   0  0  0  0  0  0  0  0  0  0  0  0
  -10.5020   23.4514   15.5628 C   0  0  0  0  0  0  0  0  0  0  0  0
  -10.3633   24.1398   14.2373 C   0  0  0  0  0  0  0  0  0  0  0  0
   -9.1462   24.9666   13.9453 C   0  0  0  0  0  0  0  0  0  0  0  0
   -8.0679   25.1049   14.9789 C   0  0  0  0  0  0  0  0  0  0  0  0
   -8.2067   24.4166   16.3043 C   0  0  0  0  0  0  0  0  0  0  0  0
   -9.4237   23.5898   16.5963 C   0  0  0  0  0  0  0  0  0  0  0  0
   -5.6338   26.7586   14.3949 C   0  0  0  0  0  0  0  0  0  0  0  0
   -4.2936   26.3300   14.9146 C   0  0  0  0  0  0  0  0  0  0  0  0
   -3.0766   27.1567   14.6227 C   0  0  0  0  0  0  0  0  0  0  0  0
   -3.1998   28.4121   13.8110 C   0  0  0  0  0  0  0  0  0  0  0  0
   -4.5400   28.8407   13.2913 C   0  0  0  0  0  0  0  0  0  0  0  0
   -5.7570   28.0139   13.5832 C   0  0  0  0  0  0  0  0  0  0  0  0
   -7.4739   27.0986   15.3941 C   0  0  0  0  0  0  0  0  0  0  0  0
   -8.8874   27.4949   15.0857 C   0  0  0  0  0  0  0  0  0  0  0  0
   -9.5105   28.6618   15.7929 C   0  0  0  0  0  0  0  0  0  0  0  0
   -8.7201   29.4324   16.8085 C   0  0  0  0  0  0  0  0  0  0  0  0
   -7.3067   29.0362   17.1169 C   0  0  0  0  0  0  0  0  0  0  0  0
   -6.6836   27.8693   16.4097 C   0  0  0  0  0  0  0  0  0  0  0  0
   -6.2279   24.7649   13.9797 N   0  0  0  0  0  0  0  0  0  0  0  0
   -5.6866   24.9316   12.5907 C   0  0  0  0  0  0  0  0  0  0  0  0
   -4.2906   24.4850   12.2711 C   0  0  0  0  0  0  0  0  0  0  0  0
   -3.8588   23.0852   12.5936 O   0  0  0  0  0  0  0  0  0  0  0  0
   -3.3267   25.4382   11.6291 C   0  0  0  0  0  0  0  0  0  0  0  0
   -3.6654   26.4736   10.5980 C   0  0  0  0  0  0  0  0  0  0  0  0
   -2.4028   27.1987   10.2371 N   0  0  0  0  0  0  0  0  0  0  0  0
   -1.2838   26.6113   11.0452 C   0  0  0  0  0  0  0  0  0  0  0  0
   -1.8548   25.5233   11.9054 C   0  0  0  0  0  0  0  0  0  0  0  0
   -0.9608   24.7506   12.8293 C   0  0  0  0  0  0  0  0  0  0  0  0
    0.5043   25.0659   12.8929 C   0  0  0  0  0  0  0  0  0  0  0  0
    1.0753   26.1540   12.0326 C   0  0  0  0  0  0  0  0  0  0  0  0
    0.1812   26.9267   11.1087 C   0  0  0  0  0  0  0  0  0  0  0  0
  2  3  2  0  0  0
  3  4  1  0  0  0
  4  5  2  0  0  0
  5  6  1  0  0  0
  6  7  2  0  0  0
  5  1  1  0  0  0
  1  8  1  0  0  0
  8  9  2  0  0  0
  9 10  1  0  0  0
 10 11  2  0  0  0
 11 12  1  0  0  0
 12 13  2  0  0  0
  1 14  1  0  0  0
 14 15  2  0  0  0
 15 16  1  0  0  0
 16 17  2  0  0  0
 17 18  1  0  0  0
 18 19  2  0  0  0
  1 20  1  0  0  0
 20 21  1  0  0  0
 21 22  1  0  0  0
 22 23  2  0  0  0
 22 24  1  0  0  0
 24 25  2  0  0  0
 25 26  1  0  0  0
 26 27  1  0  0  0
 27 28  2  0  0  0
 28 29  1  0  0  0
 29 30  2  0  0  0
 30 31  1  0  0  0
 31 32  2  0  0  0
  7  2  1  0  0  0
 13  8  1  0  0  0
 19 14  1  0  0  0
 28 24  1  0  0  0
 32 27  1  0  0  0
M  END
> <minimizedAffinity>
-5.89159

$$$$



 31 34  0  0  0  0  0  0  0  0999 V2000
   -5.5846   25.6016   12.5735 C   0  0  0  0  0  0  0  0  0  0  0  0
   -5.6828   26.7924   13.4804 C   0  0  0  0  0  0  0  0  0  0  0  0
   -6.8804   26.6047   14.3639 C   0  0  0  0  0  0  0  0  0  0  0  0
   -7.5223   25.2978   14.0031 C   0  0  0  0  0  0  0  0  0  0  0  0
   -6.7215   24.6780   12.8965 S   0  0  0  0  0  0  0  0  0  0  0  0
   -8.7496   24.7135   14.6374 C   0  0  0  0  0  0  0  0  0  0  0  0
  -10.0634   24.7641   13.9155 C   0  0  0  0  0  0  0  0  0  0  0  0
  -11.2907   24.1797   14.5499 C   0  0  0  0  0  0  0  0  0  0  0  0
  -11.2042   23.5449   15.9061 C   0  0  0  0  0  0  0  0  0  0  0  0
   -9.8902   23.4943   16.6281 C   0  0  0  0  0  0  0  0  0  0  0  0
   -8.6630   24.0787   15.9937 C   0  0  0  0  0  0  0  0  0  0  0  0
   -7.3530   27.5566   15.4224 C   0  0  0  0  0  0  0  0  0  0  0  0
   -6.3588   28.2451   16.3100 C   0  0  0  0  0  0  0  0  0  0  0  0
   -6.8315   29.1970   17.3685 C   0  0  0  0  0  0  0  0  0  0  0  0
   -8.2982   29.4604   17.5395 C   0  0  0  0  0  0  0  0  0  0  0  0
   -9.2923   28.7720   16.6520 C   0  0  0  0  0  0  0  0  0  0  0  0
   -8.8196   27.8201   15.5935 C   0  0  0  0  0  0  0  0  0  0  0  0
   -3.1398   24.9990   11.9335 C   0  0  0  0  0  0  0  0  0  0  0  0
   -4.5341   25.3744   11.5272 N   0  0  0  0  0  0  0  0  0  0  0  0
    0.1224   25.4874    9.7269 C   0  0  0  0  0  0  0  0  0  0  0  0
    0.0119   24.3174    8.7947 C   0  0  0  0  0  0  0  0  0  0  0  0
   -1.1492   23.3747    8.9088 C   0  0  0  0  0  0  0  0  0  0  0  0
   -2.1998   23.6018    9.9550 C   0  0  0  0  0  0  0  0  0  0  0  0
   -2.0892   24.7718   10.8872 C   0  0  0  0  0  0  0  0  0  0  0  0
   -0.9281   25.7145   10.7731 C   0  0  0  0  0  0  0  0  0  0  0  0
   -0.8176   26.8845   11.7054 O   0  0  0  0  0  0  0  0  0  0  0  0
    1.2835   26.4301    9.6128 C   0  0  0  0  0  0  0  0  0  0  0  0
   -0.0788   28.1958    8.2800 C   0  0  0  0  0  0  0  0  0  0  0  0
    1.2354   27.5641    8.6321 C   0  0  0  0  0  0  0  0  0  0  0  0
   -4.7477   27.9650   13.5003 C   0  0  0  0  0  0  0  0  0  0  0  0
   -3.8125   29.1376   13.5201 N   0  0  0  0  0  0  0  0  0  0  0  0
 28 29  2  0  0  0
 29 27  1  0  0  0
 27 20  1  0  0  0
 20 21  2  0  0  0
 21 22  1  0  0  0
 22 23  2  0  0  0
 23 24  1  0  0  0
 24 25  2  0  0  0
 25 26  1  0  0  0
 24 18  1  0  0  0
 18 19  2  0  0  0
 19  1  1  0  0  0
  1  2  2  0  0  0
  2  3  1  0  0  0
  3  4  2  0  0  0
  4  5  1  0  0  0
  4  6  1  0  0  0
  6  7  2  0  0  0
  7  8  1  0  0  0
  8  9  2  0  0  0
  9 10  1  0  0  0
 10 11  2  0  0  0
  3 12  1  0  0  0
 12 13  2  0  0  0
 13 14  1  0  0  0
 14 15  2  0  0  0
 15 16  1  0  0  0
 16 17  2  0  0  0
  2 30  1  0  0  0
 30 31  3  0  0  0
 25 20  1  0  0  0
  5  1  1  0  0  0
 11  6  1  0  0  0
 17 12  1  0  0  0
M  CHG 1  19   1
M  END
> <minimizedAffinity>
-5.49480

$$$$



 28 32  0  0  0  0  0  0  0  0999 V2000
   -4.3169   26.3330   12.1627 C   0  0  0  0  0  0  0  0  0  0  0  0
   -4.7404   27.3259   13.2042 C   0  0  0  0  0  0  0  0  0  0  0  0
   -6.0050   26.8242   13.8357 C   0  0  0  0  0  0  0  0  0  0  0  0
   -6.8769   27.3856   14.9197 C   0  0  0  0  0  0  0  0  0  0  0  0
   -8.1068   26.6440   15.3524 C   0  0  0  0  0  0  0  0  0  0  0  0
   -8.4649   25.3410   14.7012 C   0  0  0  0  0  0  0  0  0  0  0  0
   -7.5931   24.7797   13.6173 N   0  0  0  0  0  0  0  0  0  0  0  0
   -6.3632   25.5213   13.1845 C   0  0  0  0  0  0  0  0  0  0  0  0
   -5.3198   25.2177   12.1505 S   0  0  0  0  0  0  0  0  0  0  0  0
   -8.9786   27.2052   16.4363 C   0  0  0  0  0  0  0  0  0  0  0  0
   -8.6204   28.5081   17.0875 C   0  0  0  0  0  0  0  0  0  0  0  0
   -7.3905   29.2498   16.6548 C   0  0  0  0  0  0  0  0  0  0  0  0
   -6.5187   28.6885   15.5709 C   0  0  0  0  0  0  0  0  0  0  0  0
   -4.0248   28.5973   13.5530 N   0  0  0  0  0  0  0  0  0  0  0  0
   -9.6948   24.5993   15.1339 C   0  0  0  0  0  0  0  0  0  0  0  0
   -9.7886   23.6441   16.2866 C   0  0  0  0  0  0  0  0  0  0  0  0
  -11.1987   23.1371   16.3550 C   0  0  0  0  0  0  0  0  0  0  0  0
  -11.9764   23.7790   15.2445 C   0  0  0  0  0  0  0  0  0  0  0  0
  -11.0470   24.6827   14.4899 S   0  0  0  0  0  0  0  0  0  0  0  0
   -3.1034   26.4372   11.2870 C   0  0  0  0  0  0  0  0  0  0  0  0
   -3.2595   26.5537    9.7998 O   0  0  0  0  0  0  0  0  0  0  0  0
    0.7887   27.0355   11.7808 C   0  0  0  0  0  0  0  0  0  0  0  0
   -0.5809   27.0479   11.1691 C   0  0  0  0  0  0  0  0  0  0  0  0
   -1.7338   26.4248   11.8987 C   0  0  0  0  0  0  0  0  0  0  0  0
   -1.5173   25.7893   13.2401 C   0  0  0  0  0  0  0  0  0  0  0  0
   -0.1477   25.7769   13.8518 C   0  0  0  0  0  0  0  0  0  0  0  0
    1.0053   26.4000   13.1221 C   0  0  0  0  0  0  0  0  0  0  0  0
    0.0689   25.1414   15.1932 Cl  0  0  0  0  0  0  0  0  0  0  0  0
 22 23  2  0  0  0
 23 24  1  0  0  0
 24 25  2  0  0  0
 25 26  1  0  0  0
 26 27  2  0  0  0
 26 28  1  0  0  0
 24 20  1  0  0  0
 20 21  2  0  0  0
 20  1  1  0  0  0
  1  2  2  0  0  0
  2  3  1  0  0  0
  3  4  2  0  0  0
  4  5  1  0  0  0
  5  6  2  0  0  0
  6  7  1  0  0  0
  7  8  2  0  0  0
  8  9  1  0  0  0
  6 15  1  0  0  0
 15 16  2  0  0  0
 16 17  1  0  0  0
 17 18  2  0  0  0
 18 19  1  0  0  0
  5 10  1  0  0  0
 10 11  1  0  0  0
 11 12  1  0  0  0
 12 13  1  0  0  0
  2 14  1  0  0  0
 27 22  1  0  0  0
  9  1  1  0  0  0
  8  3  1  0  0  0
 13  4  1  0  0  0
 19 15  1  0  0  0
M  END
> <minimizedAffinity>
-9.72339

$$$$



 28 31  0  0  0  0  0  0  0  0999 V2000
   -1.5163   25.4604   13.2642 C   0  0  0  0  0  0  0  0  0  0  0  0
   -0.7994   25.9066   12.0245 C   0  0  0  0  0  0  0  0  0  0  0  0
   -0.8779   25.0811   10.7745 C   0  0  0  0  0  0  0  0  0  0  0  0
   -1.6733   23.8095   10.7643 C   0  0  0  0  0  0  0  0  0  0  0  0
   -1.7519   22.9840    9.5143 C   0  0  0  0  0  0  0  0  0  0  0  0
   -1.0349   23.4302    8.2746 C   0  0  0  0  0  0  0  0  0  0  0  0
   -0.2395   24.7019    8.2848 C   0  0  0  0  0  0  0  0  0  0  0  0
   -0.1610   25.5273    9.5348 C   0  0  0  0  0  0  0  0  0  0  0  0
    0.6345   26.7991    9.5450 C   0  0  0  0  0  0  0  0  0  0  0  0
    0.7130   27.6245   10.7950 C   0  0  0  0  0  0  0  0  0  0  0  0
   -0.0039   27.1783   12.0347 C   0  0  0  0  0  0  0  0  0  0  0  0
    0.0746   28.0038   13.2847 O   0  0  0  0  0  0  0  0  0  0  0  0
    0.3855   22.4327   15.9967 C   0  0  0  0  0  0  0  0  0  0  0  0
   -1.0646   22.7816   16.1572 C   0  0  0  0  0  0  0  0  0  0  0  0
   -1.6985   23.7908   15.2464 C   0  0  0  0  0  0  0  0  0  0  0  0
   -0.8824   24.4512   14.1750 C   0  0  0  0  0  0  0  0  0  0  0  0
    0.5677   24.1024   14.0145 C   0  0  0  0  0  0  0  0  0  0  0  0
    1.2016   23.0931   14.9254 C   0  0  0  0  0  0  0  0  0  0  0  0
   -2.8672   26.0235   13.5931 N   0  0  0  0  0  0  0  0  0  0  0  0
   -4.1073   25.2866   13.1816 C   0  0  0  0  0  0  0  0  0  0  0  0
   -3.9964   23.9867   12.4412 O   0  0  0  0  0  0  0  0  0  0  0  0
   -5.4581   25.8496   13.5105 C   0  0  0  0  0  0  0  0  0  0  0  0
   -6.6852   25.2842   12.8589 C   0  0  0  0  0  0  0  0  0  0  0  0
   -8.0360   25.8472   13.1877 C   0  0  0  0  0  0  0  0  0  0  0  0
   -8.1599   26.9756   14.1683 C   0  0  0  0  0  0  0  0  0  0  0  0
   -6.9328   27.5410   14.8199 C   0  0  0  0  0  0  0  0  0  0  0  0
   -5.5819   26.9780   14.4910 C   0  0  0  0  0  0  0  0  0  0  0  0
   -7.0566   28.6694   15.8004 Br  0  0  0  0  0  0  0  0  0  0  0  0
 13 14  2  0  0  0
 14 15  1  0  0  0
 15 16  2  0  0  0
 16 17  1  0  0  0
 17 18  2  0  0  0
 16  1  1  0  0  0
  1  2  1  0  0  0
  2  3  1  0  0  0
  3  4  2  0  0  0
  4  5  1  0  0  0
  5  6  2  0  0  0
  6  7  1  0  0  0
  7  8  2  0  0  0
  8  9  1  0  0  0
  9 10  2  0  0  0
 10 11  1  0  0  0
 11 12  1  0  0  0
  1 19  1  0  0  0
 19 20  1  0  0  0
 20 21  2  0  0  0
 20 22  1  0  0  0
 22 23  2  0  0  0
 23 24  1  0  0  0
 24 25  2  0  0  0
 25 26  1  0  0  0
 26 27  2  0  0  0
 26 28  1  0  0  0
 18 13  1  0  0  0
 11  2  2  0  0  0
  8  3  1  0  0  0
 27 22  1  0  0  0
M  END
> <minimizedAffinity>
-7.27133

$$$$



 20 20  0  0  0  0  0  0  0  0999 V2000
   -3.9575   27.5949   14.6947 N   0  0  0  0  0  0  0  0  0  0  0  0
   -2.9379   26.9939   13.7732 C   0  0  0  0  0  0  0  0  0  0  0  0
   -3.1427   27.0511   12.2883 O   0  0  0  0  0  0  0  0  0  0  0  0
   -1.7135   26.3355   14.3366 N   0  0  0  0  0  0  0  0  0  0  0  0
   -5.1819   28.2532   14.1313 C   0  0  0  0  0  0  0  0  0  0  0  0
   -8.1904   25.7941   13.3242 C   0  0  0  0  0  0  0  0  0  0  0  0
   -6.8612   26.4836   13.2377 C   0  0  0  0  0  0  0  0  0  0  0  0
   -6.5113   27.5637   14.2179 C   0  0  0  0  0  0  0  0  0  0  0  0
   -7.4907   27.9543   15.2847 C   0  0  0  0  0  0  0  0  0  0  0  0
   -8.8200   27.2648   15.3713 C   0  0  0  0  0  0  0  0  0  0  0  0
   -9.1699   26.1847   14.3910 C   0  0  0  0  0  0  0  0  0  0  0  0
  -10.4992   25.4952   14.4776 Br  0  0  0  0  0  0  0  0  0  0  0  0
   -7.1408   29.0345   16.2650 Cl  0  0  0  0  0  0  0  0  0  0  0  0
   -0.6938   25.7345   13.4150 C   0  0  0  0  0  0  0  0  0  0  0  0
    0.1859   24.6186   13.8954 C   0  0  0  0  0  0  0  0  0  0  0  0
    0.2057   24.2522   15.3498 S   0  0  0  0  0  0  0  0  0  0  0  0
   -0.0155   22.8286   15.7677 C   0  0  0  0  0  0  0  0  0  0  0  0
    1.3009   22.4454   15.1591 F   0  0  0  0  0  0  0  0  0  0  0  0
   -1.3318   23.2118   16.3763 F   0  0  0  0  0  0  0  0  0  0  0  0
   -0.2367   21.4051   16.1856 F   0  0  0  0  0  0  0  0  0  0  0  0
  6  7  2  0  0  0
  7  8  1  0  0  0
  8  9  2  0  0  0
  9 10  1  0  0  0
 10 11  2  0  0  0
 11 12  1  0  0  0
  9 13  1  0  0  0
  8  5  1  0  0  0
  5  1  1  0  0  0
  1  2  1  0  0  0
  2  3  2  0  0  0
  2  4  1  0  0  0
  4 14  1  0  0  0
 14 15  1  0  0  0
 15 16  1  0  0  0
 16 17  1  0  0  0
 17 18  1  0  0  0
 17 19  1  0  0  0
 17 20  1  0  0  0
 11  6  1  0  0  0
M  END
> <minimizedAffinity>
-7.30806

$$$$



 26 29  0  0  0  0  0  0  0  0999 V2000
   -3.8034   26.2542   12.6153 C   0  0  0  0  0  0  0  0  0  0  0  0
   -3.6681   26.4552   11.1350 C   0  0  0  0  0  0  0  0  0  0  0  0
   -2.4441   25.9642   10.4202 C   0  0  0  0  0  0  0  0  0  0  0  0
   -2.1561   24.4938   10.3495 C   0  0  0  0  0  0  0  0  0  0  0  0
   -0.9322   24.0028    9.6347 C   0  0  0  0  0  0  0  0  0  0  0  0
    0.0037   24.9822    8.9905 C   0  0  0  0  0  0  0  0  0  0  0  0
   -0.2843   26.4526    9.0612 C   0  0  0  0  0  0  0  0  0  0  0  0
   -1.5083   26.9436    9.7760 C   0  0  0  0  0  0  0  0  0  0  0  0
   -1.7964   28.4140    9.8467 O   0  0  0  0  0  0  0  0  0  0  0  0
    0.6515   27.4320    8.4171 Cl  0  0  0  0  0  0  0  0  0  0  0  0
    1.2276   24.4912    8.2758 Cl  0  0  0  0  0  0  0  0  0  0  0  0
   -2.7147   25.5622   13.3808 C   0  0  0  0  0  0  0  0  0  0  0  0
   -2.8139   24.2140   14.0308 N   0  0  0  0  0  0  0  0  0  0  0  0
   -1.4963   23.9154   14.6825 C   0  0  0  0  0  0  0  0  0  0  0  0
   -1.0103   22.7343   15.4691 C   0  0  0  0  0  0  0  0  0  0  0  0
    0.3893   22.7169   16.0083 C   0  0  0  0  0  0  0  0  0  0  0  0
    1.3029   23.8806   15.7610 C   0  0  0  0  0  0  0  0  0  0  0  0
    0.8169   25.0617   14.9744 C   0  0  0  0  0  0  0  0  0  0  0  0
   -0.5827   25.0791   14.4352 C   0  0  0  0  0  0  0  0  0  0  0  0
   -1.3357   26.0968   13.6307 N   0  0  0  0  0  0  0  0  0  0  0  0
   -7.4752   27.7270   14.7596 C   0  0  0  0  0  0  0  0  0  0  0  0
   -6.1447   28.3667   15.0248 C   0  0  0  0  0  0  0  0  0  0  0  0
   -4.9206   27.8757   14.3100 C   0  0  0  0  0  0  0  0  0  0  0  0
   -5.0273   26.7451   13.3300 C   0  0  0  0  0  0  0  0  0  0  0  0
   -6.3580   26.1055   13.0648 C   0  0  0  0  0  0  0  0  0  0  0  0
   -7.5819   26.5965   13.7796 C   0  0  0  0  0  0  0  0  0  0  0  0
 21 22  2  0  0  0
 22 23  1  0  0  0
 23 24  2  0  0  0
 24 25  1  0  0  0
 25 26  2  0  0  0
 24  1  1  0  0  0
  1  2  2  0  0  0
  2  3  1  0  0  0
  3  4  2  0  0  0
  4  5  1  0  0  0
  5  6  2  0  0  0
  6  7  1  0  0  0
  7  8  2  0  0  0
  8  9  1  0  0  0
  7 10  1  0  0  0
  6 11  1  0  0  0
  1 12  1  0  0  0
 12 13  1  0  0  0
 13 14  1  0  0  0
 14 15  2  0  0  0
 15 16  1  0  0  0
 16 17  2  0  0  0
 17 18  1  0  0  0
 18 19  2  0  0  0
 19 20  1  0  0  0
 26 21  1  0  0  0
  8  3  1  0  0  0
 20 12  2  0  0  0
 19 14  1  0  0  0
M  END
> <minimizedAffinity>
-7.49629

$$$$



 27 30  0  0  0  0  0  0  0  0999 V2000
   -4.4066   24.4516   13.8259 C   0  0  0  0  0  0  0  0  0  0  0  0
   -4.8390   25.1786   12.5871 C   0  0  0  0  0  0  0  0  0  0  0  0
   -6.3131   25.4359   12.6914 S   0  0  0  0  0  0  0  0  0  0  0  0
   -6.7917   24.8680   13.9946 C   0  0  0  0  0  0  0  0  0  0  0  0
   -5.6134   24.2597   14.6957 N   0  0  0  0  0  0  0  0  0  0  0  0
    1.1711   22.6312   15.0810 C   0  0  0  0  0  0  0  0  0  0  0  0
   -0.2233   23.0863   14.7672 C   0  0  0  0  0  0  0  0  0  0  0  0
   -0.6657   23.2189   13.3401 C   0  0  0  0  0  0  0  0  0  0  0  0
   -2.0601   23.6740   13.0263 C   0  0  0  0  0  0  0  0  0  0  0  0
   -3.0121   23.9965   14.1397 C   0  0  0  0  0  0  0  0  0  0  0  0
   -2.5698   23.8640   15.5668 C   0  0  0  0  0  0  0  0  0  0  0  0
   -1.1753   23.4089   15.8806 C   0  0  0  0  0  0  0  0  0  0  0  0
   -8.2011   24.9023   14.5068 C   0  0  0  0  0  0  0  0  0  0  0  0
   -9.2397   25.7143   13.7910 C   0  0  0  0  0  0  0  0  0  0  0  0
  -10.6490   25.7486   14.3033 C   0  0  0  0  0  0  0  0  0  0  0  0
  -11.0199   24.9710   15.5312 C   0  0  0  0  0  0  0  0  0  0  0  0
   -9.9814   24.1591   16.2469 C   0  0  0  0  0  0  0  0  0  0  0  0
   -8.5720   24.1248   15.7347 C   0  0  0  0  0  0  0  0  0  0  0  0
  -12.4294   25.0053   16.0434 Cl  0  0  0  0  0  0  0  0  0  0  0  0
   -3.9529   25.5781   11.4446 N   0  0  0  0  0  0  0  0  0  0  0  0
   -2.8608   26.5837   11.6585 C   0  0  0  0  0  0  0  0  0  0  0  0
   -2.6546   27.1900   13.0151 N   0  0  0  0  0  0  0  0  0  0  0  0
   -1.9747   26.9832   10.5161 C   0  0  0  0  0  0  0  0  0  0  0  0
   -2.3451   26.9588    9.0627 C   0  0  0  0  0  0  0  0  0  0  0  0
   -1.1620   27.4378    8.2748 C   0  0  0  0  0  0  0  0  0  0  0  0
   -0.0604   27.7582    9.2411 C   0  0  0  0  0  0  0  0  0  0  0  0
   -0.5627   27.4772   10.6263 S   0  0  0  0  0  0  0  0  0  0  0  0
  6  7  1  0  0  0
  7  8  2  0  0  0
  8  9  1  0  0  0
  9 10  2  0  0  0
 10 11  1  0  0  0
 11 12  2  0  0  0
 10  1  1  0  0  0
  1  2  2  0  0  0
  2  3  1  0  0  0
  3  4  1  0  0  0
  4  5  2  0  0  0
  4 13  1  0  0  0
 13 14  2  0  0  0
 14 15  1  0  0  0
 15 16  2  0  0  0
 16 17  1  0  0  0
 17 18  2  0  0  0
 16 19  1  0  0  0
  2 20  1  0  0  0
 20 21  2  0  0  0
 21 23  1  0  0  0
 23 24  2  0  0  0
 24 25  1  0  0  0
 25 26  2  0  0  0
 26 27  1  0  0  0
 21 22  1  0  0  0
 12  7  1  0  0  0
  5  1  1  0  0  0
 18 13  1  0  0  0
 27 23  1  0  0  0
M  END
> <minimizedAffinity>
-5.54675

$$$$



 27 30  0  0  0  0  0  0  0  0999 V2000
   -3.3941   26.4905   12.7855 C   0  0  0  0  0  0  0  0  0  0  0  0
   -4.8425   26.5822   13.1650 C   0  0  0  0  0  0  0  0  0  0  0  0
   -5.8594   25.7412   12.4518 C   0  0  0  0  0  0  0  0  0  0  0  0
   -7.3077   25.8329   12.8312 C   0  0  0  0  0  0  0  0  0  0  0  0
   -7.7391   26.7656   13.9239 C   0  0  0  0  0  0  0  0  0  0  0  0
   -9.1874   26.8573   14.3033 C   0  0  0  0  0  0  0  0  0  0  0  0
   -9.6188   27.7900   15.3960 C   0  0  0  0  0  0  0  0  0  0  0  0
   -8.6020   28.6309   16.1092 C   0  0  0  0  0  0  0  0  0  0  0  0
   -7.1537   28.5393   15.7298 N   0  0  0  0  0  0  0  0  0  0  0  0
   -6.7223   27.6066   14.6371 C   0  0  0  0  0  0  0  0  0  0  0  0
   -5.2739   27.5149   14.2577 C   0  0  0  0  0  0  0  0  0  0  0  0
   -4.2570   28.3559   14.9709 O   0  0  0  0  0  0  0  0  0  0  0  0
   -0.5652   24.0377   15.2817 C   0  0  0  0  0  0  0  0  0  0  0  0
   -1.7929   23.4036   14.6980 C   0  0  0  0  0  0  0  0  0  0  0  0
   -2.7359   24.2212   13.8659 C   0  0  0  0  0  0  0  0  0  0  0  0
   -2.4512   25.6729   13.6176 C   0  0  0  0  0  0  0  0  0  0  0  0
   -1.2235   26.3069   14.2014 C   0  0  0  0  0  0  0  0  0  0  0  0
   -0.2805   25.4893   15.0334 C   0  0  0  0  0  0  0  0  0  0  0  0
   -2.8888   27.2163   11.5740 N   0  0  0  0  0  0  0  0  0  0  0  0
   -1.9826   26.5172   10.6046 C   0  0  0  0  0  0  0  0  0  0  0  0
   -2.2660   25.1005   10.2010 C   0  0  0  0  0  0  0  0  0  0  0  0
   -1.3597   24.4014    9.2314 C   0  0  0  0  0  0  0  0  0  0  0  0
   -0.1701   25.1188    8.6656 C   0  0  0  0  0  0  0  0  0  0  0  0
    0.1132   26.5354    9.0692 C   0  0  0  0  0  0  0  0  0  0  0  0
   -0.7930   27.2346   10.0387 C   0  0  0  0  0  0  0  0  0  0  0  0
    1.3028   27.2529    8.5034 Cl  0  0  0  0  0  0  0  0  0  0  0  0
   -1.6430   22.9848    8.8278 Cl  0  0  0  0  0  0  0  0  0  0  0  0
 13 14  2  0  0  0
 14 15  1  0  0  0
 15 16  2  0  0  0
 16 17  1  0  0  0
 17 18  2  0  0  0
 16  1  1  0  0  0
  1  2  1  0  0  0
  2  3  2  0  0  0
  3  4  1  0  0  0
  4  5  2  0  0  0
  5  6  1  0  0  0
  6  7  2  0  0  0
  7  8  1  0  0  0
  8  9  2  0  0  0
  9 10  1  0  0  0
 10 11  2  0  0  0
 11 12  1  0  0  0
  1 19  1  0  0  0
 19 20  1  0  0  0
 20 21  2  0  0  0
 21 22  1  0  0  0
 22 23  2  0  0  0
 23 24  1  0  0  0
 24 25  2  0  0  0
 24 26  1  0  0  0
 22 27  1  0  0  0
 18 13  1  0  0  0
 11  2  1  0  0  0
 10  5  1  0  0  0
 25 20  1  0  0  0
M  END
> <minimizedAffinity>
-9.05692

$$$$



 27 30  0  0  0  0  0  0  0  0999 V2000
   -3.4487   26.5361   12.9201 C   0  0  0  0  0  0  0  0  0  0  0  0
  -10.8599   24.5700   14.3192 C   0  0  0  0  0  0  0  0  0  0  0  0
   -9.7191   25.5311   14.4763 C   0  0  0  0  0  0  0  0  0  0  0  0
   -9.9077   26.7979   15.2570 C   0  0  0  0  0  0  0  0  0  0  0  0
   -8.7669   27.7591   15.4141 C   0  0  0  0  0  0  0  0  0  0  0  0
   -7.4373   27.4533   14.7906 C   0  0  0  0  0  0  0  0  0  0  0  0
   -6.2965   28.4145   14.9478 C   0  0  0  0  0  0  0  0  0  0  0  0
   -4.9669   28.1087   14.3243 C   0  0  0  0  0  0  0  0  0  0  0  0
   -4.7782   26.8418   13.5436 C   0  0  0  0  0  0  0  0  0  0  0  0
   -5.9191   25.8807   13.3864 C   0  0  0  0  0  0  0  0  0  0  0  0
   -7.2487   26.1865   14.0100 C   0  0  0  0  0  0  0  0  0  0  0  0
   -8.3895   25.2254   13.8528 N   0  0  0  0  0  0  0  0  0  0  0  0
   -5.7304   24.6139   12.6058 O   0  0  0  0  0  0  0  0  0  0  0  0
   -2.4758   25.6411   13.6291 C   0  0  0  0  0  0  0  0  0  0  0  0
   -2.5029   24.1414   13.6386 C   0  0  0  0  0  0  0  0  0  0  0  0
   -1.3489   23.6622   14.4684 C   0  0  0  0  0  0  0  0  0  0  0  0
   -0.6085   24.8658   14.9717 C   0  0  0  0  0  0  0  0  0  0  0  0
   -1.3050   26.0889   14.4530 S   0  0  0  0  0  0  0  0  0  0  0  0
   -3.0919   27.1253   11.5876 N   0  0  0  0  0  0  0  0  0  0  0  0
   -2.0060   26.5046   10.7595 C   0  0  0  0  0  0  0  0  0  0  0  0
   -0.6744   27.1841   10.6377 C   0  0  0  0  0  0  0  0  0  0  0  0
    0.4114   26.5633    9.8096 C   0  0  0  0  0  0  0  0  0  0  0  0
    0.1655   25.2630    9.1034 C   0  0  0  0  0  0  0  0  0  0  0  0
   -1.1662   24.5835    9.2253 C   0  0  0  0  0  0  0  0  0  0  0  0
   -2.2519   25.2042   10.0533 C   0  0  0  0  0  0  0  0  0  0  0  0
   -1.4120   23.2832    8.5191 Cl  0  0  0  0  0  0  0  0  0  0  0  0
    1.2514   24.6422    8.2754 Cl  0  0  0  0  0  0  0  0  0  0  0  0
  2  3  1  0  0  0
  3  4  2  0  0  0
  4  5  1  0  0  0
  5  6  2  0  0  0
  6  7  1  0  0  0
  7  8  2  0  0  0
  8  9  1  0  0  0
  9 10  2  0  0  0
 10 11  1  0  0  0
 11 12  2  0  0  0
 10 13  1  0  0  0
  9  1  1  0  0  0
  1 14  1  0  0  0
 14 15  2  0  0  0
 15 16  1  0  0  0
 16 17  2  0  0  0
 17 18  1  0  0  0
  1 19  1  0  0  0
 19 20  1  0  0  0
 20 21  2  0  0  0
 21 22  1  0  0  0
 22 23  2  0  0  0
 23 24  1  0  0  0
 24 25  2  0  0  0
 24 26  1  0  0  0
 23 27  1  0  0  0
 12  3  1  0  0  0
 11  6  1  0  0  0
 18 14  1  0  0  0
 25 20  1  0  0  0
M  END
> <minimizedAffinity>
-8.48631

$$$$



 28 30  0  0  0  0  0  0  0  0999 V2000
   -7.9915   26.1407   14.4062 C   0  0  0  0  0  0  0  0  0  0  0  0
   -9.9108   22.8939   16.8607 C   0  0  0  0  0  0  0  0  0  0  0  0
   -8.4924   23.2995   17.1314 C   0  0  0  0  0  0  0  0  0  0  0  0
   -7.8526   24.3818   16.3132 C   0  0  0  0  0  0  0  0  0  0  0  0
   -8.6313   25.0584   15.2243 C   0  0  0  0  0  0  0  0  0  0  0  0
  -10.0498   24.6528   14.9536 C   0  0  0  0  0  0  0  0  0  0  0  0
  -10.6896   23.5706   15.7718 C   0  0  0  0  0  0  0  0  0  0  0  0
   -9.9941   21.4626   19.0273 C   0  0  0  0  0  0  0  0  0  0  0  0
  -10.5506   21.8116   17.6788 C   0  0  0  0  0  0  0  0  0  0  0  0
   -7.5499   27.4152   15.0623 C   0  0  0  0  0  0  0  0  0  0  0  0
   -6.2587   28.1356   14.8096 C   0  0  0  0  0  0  0  0  0  0  0  0
   -6.2328   29.3588   15.6776 C   0  0  0  0  0  0  0  0  0  0  0  0
   -7.5080   29.3943   16.4668 C   0  0  0  0  0  0  0  0  0  0  0  0
   -8.3220   28.1931   16.0865 S   0  0  0  0  0  0  0  0  0  0  0  0
   -7.7934   25.9485   12.9318 N   0  0  0  0  0  0  0  0  0  0  0  0
   -6.8903   24.8600   12.4321 C   0  0  0  0  0  0  0  0  0  0  0  0
   -5.4026   25.0510   12.4534 C   0  0  0  0  0  0  0  0  0  0  0  0
   -4.5035   23.9003   12.7962 O   0  0  0  0  0  0  0  0  0  0  0  0
   -4.8140   26.3928   12.1320 N   0  0  0  0  0  0  0  0  0  0  0  0
   -3.3264   26.5838   12.1534 C   0  0  0  0  0  0  0  0  0  0  0  0
   -2.5775   26.7841   10.8693 C   0  0  0  0  0  0  0  0  0  0  0  0
   -1.0898   26.9751   10.8907 C   0  0  0  0  0  0  0  0  0  0  0  0
   -0.3511   26.9658   12.1961 C   0  0  0  0  0  0  0  0  0  0  0  0
   -1.1001   26.7655   13.4802 C   0  0  0  0  0  0  0  0  0  0  0  0
   -2.5877   26.5745   13.4589 C   0  0  0  0  0  0  0  0  0  0  0  0
   -3.3366   26.3742   14.7430 Cl  0  0  0  0  0  0  0  0  0  0  0  0
    1.1365   27.1569   12.2174 C   0  0  0  0  0  0  0  0  0  0  0  0
   -3.3161   26.7934    9.5638 C   0  0  0  0  0  0  0  0  0  0  0  0
  8  9  1  0  0  0
  9  2  1  0  0  0
  2  3  2  0  0  0
  3  4  1  0  0  0
  4  5  2  0  0  0
  5  6  1  0  0  0
  6  7  2  0  0  0
  5  1  1  0  0  0
  1 10  1  0  0  0
 10 11  2  0  0  0
 11 12  1  0  0  0
 12 13  2  0  0  0
 13 14  1  0  0  0
  1 15  1  0  0  0
 15 16  1  0  0  0
 16 17  1  0  0  0
 17 18  2  0  0  0
 17 19  1  0  0  0
 19 20  1  0  0  0
 20 21  2  0  0  0
 21 22  1  0  0  0
 22 23  2  0  0  0
 23 24  1  0  0  0
 24 25  2  0  0  0
 25 26  1  0  0  0
 23 27  1  0  0  0
 21 28  1  0  0  0
  7  2  1  0  0  0
 14 10  1  0  0  0
 25 20  1  0  0  0
M  END
> <minimizedAffinity>
-8.80644

$$$$



 28 30  0  0  0  0  0  0  0  0999 V2000
   -8.5007   26.2468   13.8487 C   0  0  0  0  0  0  0  0  0  0  0  0
   -7.9952   27.2319   14.8607 C   0  0  0  0  0  0  0  0  0  0  0  0
   -8.9407   27.8371   15.8556 C   0  0  0  0  0  0  0  0  0  0  0  0
   -8.4352   28.8222   16.8676 C   0  0  0  0  0  0  0  0  0  0  0  0
   -6.9842   29.2021   16.8846 C   0  0  0  0  0  0  0  0  0  0  0  0
   -6.0387   28.5970   15.8897 C   0  0  0  0  0  0  0  0  0  0  0  0
   -6.5442   27.6119   14.8778 C   0  0  0  0  0  0  0  0  0  0  0  0
   -9.7585   25.4748   14.1168 C   0  0  0  0  0  0  0  0  0  0  0  0
   -9.8947   22.4951   17.4862 C   0  0  0  0  0  0  0  0  0  0  0  0
  -11.1414   22.8127   16.7150 C   0  0  0  0  0  0  0  0  0  0  0  0
  -11.0960   23.8060   15.5919 C   0  0  0  0  0  0  0  0  0  0  0  0
   -9.8039   24.4816   15.2400 C   0  0  0  0  0  0  0  0  0  0  0  0
   -8.5572   24.1640   16.0112 C   0  0  0  0  0  0  0  0  0  0  0  0
   -8.6026   23.1708   17.1343 C   0  0  0  0  0  0  0  0  0  0  0  0
   -7.7483   26.0337   12.5686 N   0  0  0  0  0  0  0  0  0  0  0  0
   -6.8325   24.8545   12.4243 C   0  0  0  0  0  0  0  0  0  0  0  0
   -5.3471   25.0592   12.3827 C   0  0  0  0  0  0  0  0  0  0  0  0
   -4.4236   23.9030   12.6285 O   0  0  0  0  0  0  0  0  0  0  0  0
   -4.7852   26.4199   12.0953 N   0  0  0  0  0  0  0  0  0  0  0  0
   -3.2998   26.6244   12.0537 C   0  0  0  0  0  0  0  0  0  0  0  0
   -2.6083   26.8353   10.7394 C   0  0  0  0  0  0  0  0  0  0  0  0
   -1.1228   27.0399   10.6979 C   0  0  0  0  0  0  0  0  0  0  0  0
   -0.3290   27.0336   11.9706 C   0  0  0  0  0  0  0  0  0  0  0  0
   -1.0205   26.8227   13.2848 C   0  0  0  0  0  0  0  0  0  0  0  0
   -2.5059   26.6181   13.3264 C   0  0  0  0  0  0  0  0  0  0  0  0
   -3.1974   26.4073   14.6407 Cl  0  0  0  0  0  0  0  0  0  0  0  0
    1.1564   27.2381   11.9290 Cl  0  0  0  0  0  0  0  0  0  0  0  0
   -3.4021   26.8416    9.4668 Cl  0  0  0  0  0  0  0  0  0  0  0  0
  9 10  2  0  0  0
 10 11  1  0  0  0
 11 12  2  0  0  0
 12 13  1  0  0  0
 13 14  2  0  0  0
 12  8  1  0  0  0
  1  8  1  0  0  0
  1  2  1  0  0  0
  2  3  2  0  0  0
  3  4  1  0  0  0
  4  5  2  0  0  0
  5  6  1  0  0  0
  6  7  2  0  0  0
  1 15  1  0  0  0
 15 16  1  0  0  0
 16 17  1  0  0  0
 17 18  2  0  0  0
 17 19  1  0  0  0
 19 20  1  0  0  0
 20 21  2  0  0  0
 21 22  1  0  0  0
 22 23  2  0  0  0
 23 24  1  0  0  0
 24 25  2  0  0  0
 25 26  1  0  0  0
 23 27  1  0  0  0
 21 28  1  0  0  0
 14  9  1  0  0  0
  7  2  1  0  0  0
 25 20  1  0  0  0
M  END
> <minimizedAffinity>
-10.37600

$$$$



 31 36  0  0  0  0  0  0  0  0999 V2000
   -6.1691   26.7035   14.3832 C   0  0  0  0  0  0  0  0  0  0  0  0
   -6.5943   25.2731   14.2315 C   0  0  0  0  0  0  0  0  0  0  0  0
   -5.7068   24.6318   13.2064 N   0  0  0  0  0  0  0  0  0  0  0  0
   -4.7330   25.6659   12.7244 C   0  0  0  0  0  0  0  0  0  0  0  0
   -5.0187   26.9463   13.4517 N   0  0  0  0  0  0  0  0  0  0  0  0
   -7.7112   24.6018   14.9747 C   0  0  0  0  0  0  0  0  0  0  0  0
   -7.4247   23.8521   16.2419 C   0  0  0  0  0  0  0  0  0  0  0  0
   -8.5415   23.1808   16.9850 C   0  0  0  0  0  0  0  0  0  0  0  0
   -9.9447   23.2593   16.4608 C   0  0  0  0  0  0  0  0  0  0  0  0
  -10.2312   24.0090   15.1936 C   0  0  0  0  0  0  0  0  0  0  0  0
   -9.1144   24.6802   14.4505 C   0  0  0  0  0  0  0  0  0  0  0  0
  -11.7035   23.9151   14.9222 C   0  0  0  0  0  0  0  0  0  0  0  0
  -12.5569   24.4608   13.8159 C   0  0  0  0  0  0  0  0  0  0  0  0
  -14.0338   24.1988   13.8092 C   0  0  0  0  0  0  0  0  0  0  0  0
  -14.6573   23.3911   14.9087 C   0  0  0  0  0  0  0  0  0  0  0  0
  -13.8038   22.8454   16.0149 C   0  0  0  0  0  0  0  0  0  0  0  0
  -12.3269   23.1074   16.0217 C   0  0  0  0  0  0  0  0  0  0  0  0
  -11.2400   22.7021   16.9726 S   0  0  0  0  0  0  0  0  0  0  0  0
   -3.6616   25.4564   11.6958 C   0  0  0  0  0  0  0  0  0  0  0  0
   -2.8261   24.2109   11.7261 C   0  0  0  0  0  0  0  0  0  0  0  0
   -1.7546   24.0014   10.6975 C   0  0  0  0  0  0  0  0  0  0  0  0
   -1.5187   25.0372    9.6385 C   0  0  0  0  0  0  0  0  0  0  0  0
   -2.3542   26.2825    9.6081 C   0  0  0  0  0  0  0  0  0  0  0  0
   -3.4256   26.4921   10.6368 C   0  0  0  0  0  0  0  0  0  0  0  0
   -0.4473   24.8276    8.6098 O   0  0  0  0  0  0  0  0  0  0  0  0
   -8.0197   29.7345   17.1470 C   0  0  0  0  0  0  0  0  0  0  0  0
   -8.8870   28.9410   16.2153 C   0  0  0  0  0  0  0  0  0  0  0  0
   -8.2702   27.9307   15.2940 C   0  0  0  0  0  0  0  0  0  0  0  0
   -6.7860   27.7139   15.3045 C   0  0  0  0  0  0  0  0  0  0  0  0
   -5.9186   28.5072   16.2362 C   0  0  0  0  0  0  0  0  0  0  0  0
   -6.5354   29.5176   17.1575 C   0  0  0  0  0  0  0  0  0  0  0  0
 26 27  2  0  0  0
 27 28  1  0  0  0
 28 29  2  0  0  0
 29 30  1  0  0  0
 30 31  2  0  0  0
 29  1  1  0  0  0
  1  2  2  0  0  0
  2  3  1  0  0  0
  3  4  2  0  0  0
  4  5  1  0  0  0
  4 19  1  0  0  0
 19 20  2  0  0  0
 20 21  1  0  0  0
 21 22  2  0  0  0
 22 23  1  0  0  0
 23 24  2  0  0  0
 22 25  1  0  0  0
  2  6  1  0  0  0
  6  7  2  0  0  0
  7  8  1  0  0  0
  8  9  2  0  0  0
  9 10  1  0  0  0
 10 11  2  0  0  0
 10 12  1  0  0  0
 12 13  2  0  0  0
 13 14  1  0  0  0
 14 15  2  0  0  0
 15 16  1  0  0  0
 16 17  2  0  0  0
 17 18  1  0  0  0
 31 26  1  0  0  0
  5  1  1  0  0  0
 24 19  1  0  0  0
 11  6  1  0  0  0
 18  9  1  0  0  0
 17 12  1  0  0  0
M  END
> <minimizedAffinity>
-7.17666

$$$$



 28 31  0  0  0  0  0  0  0  0999 V2000
   -3.4320   26.6573   12.8765 C   0  0  0  0  0  0  0  0  0  0  0  0
   -4.7125   27.0218   13.5677 C   0  0  0  0  0  0  0  0  0  0  0  0
   -4.6963   27.9847   14.7177 C   0  0  0  0  0  0  0  0  0  0  0  0
   -5.9768   28.3492   15.4088 C   0  0  0  0  0  0  0  0  0  0  0  0
   -7.2734   27.7508   14.9498 C   0  0  0  0  0  0  0  0  0  0  0  0
   -8.5538   28.1153   15.6409 C   0  0  0  0  0  0  0  0  0  0  0  0
   -9.8505   27.5169   15.1819 C   0  0  0  0  0  0  0  0  0  0  0  0
   -9.8667   26.5540   14.0319 C   0  0  0  0  0  0  0  0  0  0  0  0
   -8.5862   26.1895   13.3408 N   0  0  0  0  0  0  0  0  0  0  0  0
   -7.2895   26.7879   13.7997 C   0  0  0  0  0  0  0  0  0  0  0  0
   -6.0091   26.4234   13.1087 C   0  0  0  0  0  0  0  0  0  0  0  0
   -6.0253   25.4605   11.9586 O   0  0  0  0  0  0  0  0  0  0  0  0
   -2.4101   25.8180   13.5847 C   0  0  0  0  0  0  0  0  0  0  0  0
   -1.2262   26.4689   14.2364 C   0  0  0  0  0  0  0  0  0  0  0  0
   -0.2044   25.6296   14.9445 C   0  0  0  0  0  0  0  0  0  0  0  0
   -0.3664   24.1395   15.0009 C   0  0  0  0  0  0  0  0  0  0  0  0
   -1.5504   23.4886   14.3491 C   0  0  0  0  0  0  0  0  0  0  0  0
   -2.5722   24.3278   13.6410 C   0  0  0  0  0  0  0  0  0  0  0  0
   -3.7561   23.6770   12.9893 Cl  0  0  0  0  0  0  0  0  0  0  0  0
    0.6554   23.3002   15.7090 Cl  0  0  0  0  0  0  0  0  0  0  0  0
   -3.1734   27.1321   11.4774 N   0  0  0  0  0  0  0  0  0  0  0  0
    1.3029   24.7404    8.2771 C   0  0  0  0  0  0  0  0  0  0  0  0
    0.1838   25.3383    9.0772 C   0  0  0  0  0  0  0  0  0  0  0  0
    0.3336   26.7086    9.6685 C   0  0  0  0  0  0  0  0  0  0  0  0
   -0.7855   27.3066   10.4687 C   0  0  0  0  0  0  0  0  0  0  0  0
   -2.0543   26.5342   10.6773 C   0  0  0  0  0  0  0  0  0  0  0  0
   -2.2040   25.1638   10.0859 C   0  0  0  0  0  0  0  0  0  0  0  0
   -1.0850   24.5659    9.2858 C   0  0  0  0  0  0  0  0  0  0  0  0
 22 23  1  0  0  0
 23 24  2  0  0  0
 24 25  1  0  0  0
 25 26  2  0  0  0
 26 27  1  0  0  0
 27 28  2  0  0  0
 26 21  1  0  0  0
  1 21  1  0  0  0
  1 13  1  0  0  0
 13 14  2  0  0  0
 14 15  1  0  0  0
 15 16  2  0  0  0
 16 17  1  0  0  0
 17 18  2  0  0  0
 18 19  1  0  0  0
 16 20  1  0  0  0
  1  2  1  0  0  0
  2  3  2  0  0  0
  3  4  1  0  0  0
  4  5  2  0  0  0
  5  6  1  0  0  0
  6  7  2  0  0  0
  7  8  1  0  0  0
  8  9  2  0  0  0
  9 10  1  0  0  0
 10 11  2  0  0  0
 11 12  1  0  0  0
 28 23  1  0  0  0
 18 13  1  0  0  0
 11  2  1  0  0  0
 10  5  1  0  0  0
M  END
> <minimizedAffinity>
-9.06742

$$$$



 18 19  0  0  0  0  0  0  0  0999 V2000
   -8.1989   24.9209   13.1167 N   0  0  0  0  0  0  0  0  0  0  0  0
   -9.0079   25.4912   14.2438 C   0  0  0  0  0  0  0  0  0  0  0  0
   -9.9793   24.6211   14.9851 C   0  0  0  0  0  0  0  0  0  0  0  0
  -11.4237   24.5968   14.5815 C   0  0  0  0  0  0  0  0  0  0  0  0
  -12.3951   23.7267   15.3228 C   0  0  0  0  0  0  0  0  0  0  0  0
  -11.9219   22.8808   16.4676 C   0  0  0  0  0  0  0  0  0  0  0  0
  -10.4773   22.9052   16.8712 C   0  0  0  0  0  0  0  0  0  0  0  0
   -9.5061   23.7753   16.1299 C   0  0  0  0  0  0  0  0  0  0  0  0
   -8.0615   23.7996   16.5335 O   0  0  0  0  0  0  0  0  0  0  0  0
  -10.0041   22.0594   18.0161 I   0  0  0  0  0  0  0  0  0  0  0  0
  -13.8395   23.7023   14.9192 Br  0  0  0  0  0  0  0  0  0  0  0  0
   -7.2276   25.7910   12.3754 N   0  0  0  0  0  0  0  0  0  0  0  0
   -3.4576   27.1851   14.3987 C   0  0  0  0  0  0  0  0  0  0  0  0
   -4.6501   28.0922   14.3275 C   0  0  0  0  0  0  0  0  0  0  0  0
   -5.9068   27.6275   13.6531 C   0  0  0  0  0  0  0  0  0  0  0  0
   -5.9710   26.2557   13.0499 C   0  0  0  0  0  0  0  0  0  0  0  0
   -4.7785   25.3486   13.1210 C   0  0  0  0  0  0  0  0  0  0  0  0
   -3.5218   25.8133   13.7954 C   0  0  0  0  0  0  0  0  0  0  0  0
 13 14  2  0  0  0
 14 15  1  0  0  0
 15 16  2  0  0  0
 16 17  1  0  0  0
 17 18  2  0  0  0
 16 12  1  0  0  0
 12  1  1  0  0  0
  1  2  2  0  0  0
  2  3  1  0  0  0
  3  4  2  0  0  0
  4  5  1  0  0  0
  5  6  2  0  0  0
  6  7  1  0  0  0
  7  8  2  0  0  0
  8  9  1  0  0  0
  7 10  1  0  0  0
  5 11  1  0  0  0
 18 13  1  0  0  0
  8  3  1  0  0  0
M  END
> <minimizedAffinity>
-7.78320

$$$$



 25 27  0  0  0  0  0  0  0  0999 V2000
   -1.4583   27.0856   10.4263 C   0  0  0  0  0  0  0  0  0  0  0  0
   -0.7880   26.9693   11.7632 C   0  0  0  0  0  0  0  0  0  0  0  0
   -1.8557   26.8118   12.8049 C   0  0  0  0  0  0  0  0  0  0  0  0
   -3.1859   26.8307   12.1119 C   0  0  0  0  0  0  0  0  0  0  0  0
   -2.9402   26.9999   10.6418 S   0  0  0  0  0  0  0  0  0  0  0  0
    0.6904   27.0044   12.0143 N   0  0  0  0  0  0  0  0  0  0  0  0
   -4.5264   26.7029   12.7728 C   0  0  0  0  0  0  0  0  0  0  0  0
   -5.0360   27.8042   13.6544 C   0  0  0  0  0  0  0  0  0  0  0  0
   -6.3764   27.6764   14.3154 C   0  0  0  0  0  0  0  0  0  0  0  0
   -7.2072   26.4471   14.0947 C   0  0  0  0  0  0  0  0  0  0  0  0
   -6.6976   25.3457   13.2131 C   0  0  0  0  0  0  0  0  0  0  0  0
   -5.3572   25.4736   12.5522 C   0  0  0  0  0  0  0  0  0  0  0  0
   -8.5477   26.3193   14.7557 Br  0  0  0  0  0  0  0  0  0  0  0  0
   -0.7678   27.2573    9.1058 C   0  0  0  0  0  0  0  0  0  0  0  0
   -0.5286   28.6330    8.5579 O   0  0  0  0  0  0  0  0  0  0  0  0
   -0.3165   26.0534    8.3332 O   0  0  0  0  0  0  0  0  0  0  0  0
   -1.3665   23.7227    8.7975 C   0  0  0  0  0  0  0  0  0  0  0  0
   -0.2576   24.7120    9.0019 C   0  0  0  0  0  0  0  0  0  0  0  0
   -1.6324   26.6618   14.2806 S   0  0  0  0  0  0  0  0  0  0  0  0
   -1.0298   25.4000   14.8235 C   0  0  0  0  0  0  0  0  0  0  0  0
   -1.8950   24.1984   15.0633 C   0  0  0  0  0  0  0  0  0  0  0  0
   -1.2925   22.9366   15.6062 C   0  0  0  0  0  0  0  0  0  0  0  0
    0.1753   22.8765   15.9094 C   0  0  0  0  0  0  0  0  0  0  0  0
    1.0406   24.0781   15.6696 C   0  0  0  0  0  0  0  0  0  0  0  0
    0.4380   25.3399   15.1267 C   0  0  0  0  0  0  0  0  0  0  0  0
 17 18  1  0  0  0
 18 16  1  0  0  0
 16 14  1  0  0  0
 14 15  2  0  0  0
 14  1  1  0  0  0
  1  2  2  0  0  0
  2  3  1  0  0  0
  3  4  2  0  0  0
  4  5  1  0  0  0
  4  7  1  0  0  0
  7  8  2  0  0  0
  8  9  1  0  0  0
  9 10  2  0  0  0
 10 11  1  0  0  0
 11 12  2  0  0  0
 10 13  1  0  0  0
  3 19  1  0  0  0
 19 20  1  0  0  0
 20 21  2  0  0  0
 21 22  1  0  0  0
 22 23  2  0  0  0
 23 24  1  0  0  0
 24 25  2  0  0  0
  2  6  1  0  0  0
  5  1  1  0  0  0
 12  7  1  0  0  0
 25 20  1  0  0  0
M  END
> <minimizedAffinity>
-8.31602

$$$$



 26 29  0  0  0  0  0  0  0  0999 V2000
   -2.6989   27.0637   11.4581 N   0  0  0  0  0  0  0  0  0  0  0  0
   -3.7196   26.0340   11.8428 C   0  0  0  0  0  0  0  0  0  0  0  0
   -3.5590   24.6131   11.3898 O   0  0  0  0  0  0  0  0  0  0  0  0
   -4.9007   26.4252   12.6805 C   0  0  0  0  0  0  0  0  0  0  0  0
   -4.8775   27.3534   13.8586 C   0  0  0  0  0  0  0  0  0  0  0  0
   -6.2750   27.4587   14.3935 C   0  0  0  0  0  0  0  0  0  0  0  0
   -6.8544   28.2290   15.5427 C   0  0  0  0  0  0  0  0  0  0  0  0
   -8.3208   28.1362   15.8444 C   0  0  0  0  0  0  0  0  0  0  0  0
   -9.2077   27.2732   14.9968 C   0  0  0  0  0  0  0  0  0  0  0  0
   -8.6283   26.5029   13.8475 C   0  0  0  0  0  0  0  0  0  0  0  0
   -7.1619   26.5956   13.5459 C   0  0  0  0  0  0  0  0  0  0  0  0
   -6.3126   25.9569   12.4872 N   0  0  0  0  0  0  0  0  0  0  0  0
   -8.9003   28.9066   16.9937 Cl  0  0  0  0  0  0  0  0  0  0  0  0
   -3.6690   28.0533   14.4059 Cl  0  0  0  0  0  0  0  0  0  0  0  0
   -0.4428   25.8014   11.2000 C   0  0  0  0  0  0  0  0  0  0  0  0
    0.7384   25.4102   10.3622 C   0  0  0  0  0  0  0  0  0  0  0  0
    0.8446   25.8901    8.9450 C   0  0  0  0  0  0  0  0  0  0  0  0
   -0.2303   26.7611    8.3655 C   0  0  0  0  0  0  0  0  0  0  0  0
   -1.4115   27.1523    9.2033 C   0  0  0  0  0  0  0  0  0  0  0  0
   -1.5177   26.6725   10.6204 C   0  0  0  0  0  0  0  0  0  0  0  0
   -0.7616   24.3618   15.4515 C   0  0  0  0  0  0  0  0  0  0  0  0
   -0.5116   25.8134   15.1680 C   0  0  0  0  0  0  0  0  0  0  0  0
   -0.4054   26.2933   13.7507 C   0  0  0  0  0  0  0  0  0  0  0  0
   -0.5490   25.3216   12.6171 C   0  0  0  0  0  0  0  0  0  0  0  0
   -0.7990   23.8699   12.9007 C   0  0  0  0  0  0  0  0  0  0  0  0
   -0.9053   23.3901   14.3179 C   0  0  0  0  0  0  0  0  0  0  0  0
 21 22  2  0  0  0
 22 23  1  0  0  0
 23 24  2  0  0  0
 24 25  1  0  0  0
 25 26  2  0  0  0
 24 15  1  0  0  0
 15 16  2  0  0  0
 16 17  1  0  0  0
 17 18  2  0  0  0
 18 19  1  0  0  0
 19 20  2  0  0  0
 20  1  1  0  0  0
  1  2  1  0  0  0
  2  3  2  0  0  0
  2  4  1  0  0  0
  4  5  2  0  0  0
  5  6  1  0  0  0
  6  7  2  0  0  0
  7  8  1  0  0  0
  8  9  2  0  0  0
  9 10  1  0  0  0
 10 11  2  0  0  0
 11 12  1  0  0  0
  8 13  1  0  0  0
  5 14  1  0  0  0
 26 21  1  0  0  0
 20 15  1  0  0  0
 12  4  1  0  0  0
 11  6  1  0  0  0
M  END
> <minimizedAffinity>
-8.45908

$$$$



 21 22  0  0  0  0  0  0  0  0999 V2000
  -10.1395   23.0048   17.0788 C   0  0  0  0  0  0  0  0  0  0  0  0
   -9.9298   22.0096   18.1812 C   0  0  0  0  0  0  0  0  0  0  0  0
   -9.7201   21.0143   19.2838 Cl  0  0  0  0  0  0  0  0  0  0  0  0
   -8.5531   21.7219   17.6597 Cl  0  0  0  0  0  0  0  0  0  0  0  0
  -11.3064   22.2972   18.7028 Cl  0  0  0  0  0  0  0  0  0  0  0  0
   -9.0193   23.3246   16.1339 N   0  0  0  0  0  0  0  0  0  0  0  0
   -8.5841   26.3379   13.5881 C   0  0  0  0  0  0  0  0  0  0  0  0
   -8.7401   24.9449   14.1223 C   0  0  0  0  0  0  0  0  0  0  0  0
   -8.8632   24.7176   15.5998 C   0  0  0  0  0  0  0  0  0  0  0  0
   -8.8302   25.8833   16.5433 C   0  0  0  0  0  0  0  0  0  0  0  0
   -8.6742   27.2762   16.0092 C   0  0  0  0  0  0  0  0  0  0  0  0
   -8.5511   27.5035   14.5316 C   0  0  0  0  0  0  0  0  0  0  0  0
   -8.6412   28.4419   16.9526 Cl  0  0  0  0  0  0  0  0  0  0  0  0
  -11.4696   23.6802   16.9211 N   0  0  0  0  0  0  0  0  0  0  0  0
  -12.1993   23.6034   15.6128 C   0  0  0  0  0  0  0  0  0  0  0  0
  -13.2841   24.5909   15.3000 C   0  0  0  0  0  0  0  0  0  0  0  0
  -14.0139   24.5141   13.9917 C   0  0  0  0  0  0  0  0  0  0  0  0
  -13.6588   23.4497   12.9963 C   0  0  0  0  0  0  0  0  0  0  0  0
  -12.5739   22.4621   13.3090 C   0  0  0  0  0  0  0  0  0  0  0  0
  -11.8442   22.5389   14.6173 C   0  0  0  0  0  0  0  0  0  0  0  0
  -12.2189   21.3977   12.3136 Cl  0  0  0  0  0  0  0  0  0  0  0  0
  7  8  2  0  0  0
  8  9  1  0  0  0
  9 10  2  0  0  0
 10 11  1  0  0  0
 11 12  2  0  0  0
 11 13  1  0  0  0
  9  6  1  0  0  0
  6  1  1  0  0  0
  1  2  1  0  0  0
  2  3  1  0  0  0
  2  4  1  0  0  0
  2  5  1  0  0  0
  1 14  1  0  0  0
 14 15  1  0  0  0
 15 16  2  0  0  0
 16 17  1  0  0  0
 17 18  2  0  0  0
 18 19  1  0  0  0
 19 20  2  0  0  0
 19 21  1  0  0  0
 12  7  1  0  0  0
 20 15  1  0  0  0
M  END
> <minimizedAffinity>
-8.42915

$$$$



 30 33  0  0  0  0  0  0  0  0999 V2000
   -4.3409   26.3677   12.2533 C   0  0  0  0  0  0  0  0  0  0  0  0
   -3.5063   27.4639   12.8465 O   0  0  0  0  0  0  0  0  0  0  0  0
   -3.8799   25.6617   11.0129 N   0  0  0  0  0  0  0  0  0  0  0  0
   -2.5842   26.0518   10.3655 C   0  0  0  0  0  0  0  0  0  0  0  0
   -2.4612   27.3759    9.6717 C   0  0  0  0  0  0  0  0  0  0  0  0
   -1.1656   27.7660    9.0243 C   0  0  0  0  0  0  0  0  0  0  0  0
    0.0072   26.8319    9.0708 C   0  0  0  0  0  0  0  0  0  0  0  0
   -0.1157   25.5077    9.7647 C   0  0  0  0  0  0  0  0  0  0  0  0
   -1.4114   25.1176   10.4120 C   0  0  0  0  0  0  0  0  0  0  0  0
    1.3028   27.2220    8.4235 Cl  0  0  0  0  0  0  0  0  0  0  0  0
   -1.5344   23.7935   11.1059 C   0  0  0  0  0  0  0  0  0  0  0  0
   -1.5666   22.5265   10.3036 O   0  0  0  0  0  0  0  0  0  0  0  0
   -1.6251   23.7363   12.6021 C   0  0  0  0  0  0  0  0  0  0  0  0
   -0.4449   24.1287   13.4406 C   0  0  0  0  0  0  0  0  0  0  0  0
   -0.5356   24.0715   14.9367 C   0  0  0  0  0  0  0  0  0  0  0  0
   -1.8065   23.6220   15.5944 C   0  0  0  0  0  0  0  0  0  0  0  0
   -2.9868   23.2296   14.7559 C   0  0  0  0  0  0  0  0  0  0  0  0
   -2.8961   23.2868   13.2598 C   0  0  0  0  0  0  0  0  0  0  0  0
   -8.2280   25.1975   14.1954 C   0  0  0  0  0  0  0  0  0  0  0  0
   -7.2651   26.0890   14.9220 C   0  0  0  0  0  0  0  0  0  0  0  0
   -5.9694   26.4791   14.2746 C   0  0  0  0  0  0  0  0  0  0  0  0
   -5.6366   25.9776   12.9007 C   0  0  0  0  0  0  0  0  0  0  0  0
   -6.5995   25.0861   12.1741 C   0  0  0  0  0  0  0  0  0  0  0  0
   -7.8952   24.6960   12.8214 C   0  0  0  0  0  0  0  0  0  0  0  0
  -12.1150   24.0272   16.1374 C   0  0  0  0  0  0  0  0  0  0  0  0
  -12.1199   24.8813   14.9044 C   0  0  0  0  0  0  0  0  0  0  0  0
  -10.8242   25.2714   14.2570 C   0  0  0  0  0  0  0  0  0  0  0  0
   -9.5236   24.8074   14.8427 C   0  0  0  0  0  0  0  0  0  0  0  0
   -9.5187   23.9532   16.0757 C   0  0  0  0  0  0  0  0  0  0  0  0
  -10.8144   23.5631   16.7231 C   0  0  0  0  0  0  0  0  0  0  0  0
 25 26  2  0  0  0
 26 27  1  0  0  0
 27 28  2  0  0  0
 28 29  1  0  0  0
 29 30  2  0  0  0
 28 19  1  0  0  0
 19 20  2  0  0  0
 20 21  1  0  0  0
 21 22  2  0  0  0
 22 23  1  0  0  0
 23 24  2  0  0  0
 22  1  1  0  0  0
  1  2  2  0  0  0
  1  3  1  0  0  0
  3  4  1  0  0  0
  4  5  2  0  0  0
  5  6  1  0  0  0
  6  7  2  0  0  0
  7  8  1  0  0  0
  8  9  2  0  0  0
  9 11  1  0  0  0
 11 13  1  0  0  0
 13 14  2  0  0  0
 14 15  1  0  0  0
 15 16  2  0  0  0
 16 17  1  0  0  0
 17 18  2  0  0  0
 11 12  1  0  0  0
  7 10  1  0  0  0
 30 25  1  0  0  0
 24 19  1  0  0  0
  9  4  1  0  0  0
 18 13  1  0  0  0
M  END
> <minimizedAffinity>
-8.90753

$$$$



 28 32  0  0  0  0  0  0  0  0999 V2000
   -5.6165   26.8517   14.2676 C   0  0  0  0  0  0  0  0  0  0  0  0
   -5.5795   28.1883   14.9474 C   0  0  0  0  0  0  0  0  0  0  0  0
   -6.8045   28.7143   15.6349 C   0  0  0  0  0  0  0  0  0  0  0  0
   -8.0666   27.9036   15.6426 C   0  0  0  0  0  0  0  0  0  0  0  0
   -8.1036   26.5670   14.9628 C   0  0  0  0  0  0  0  0  0  0  0  0
   -6.8785   26.0410   14.2753 C   0  0  0  0  0  0  0  0  0  0  0  0
   -9.3656   25.7564   14.9705 C   0  0  0  0  0  0  0  0  0  0  0  0
  -10.5550   25.9682   14.0814 N   0  0  0  0  0  0  0  0  0  0  0  0
  -11.5843   24.9343   14.4301 C   0  0  0  0  0  0  0  0  0  0  0  0
  -12.9539   24.6577   13.8844 C   0  0  0  0  0  0  0  0  0  0  0  0
  -13.7703   23.5302   14.4434 C   0  0  0  0  0  0  0  0  0  0  0  0
  -13.2171   22.6794   15.5480 C   0  0  0  0  0  0  0  0  0  0  0  0
  -11.8475   22.9560   16.0936 C   0  0  0  0  0  0  0  0  0  0  0  0
  -11.0311   24.0835   15.5347 C   0  0  0  0  0  0  0  0  0  0  0  0
   -9.6599   24.5915   15.8687 S   0  0  0  0  0  0  0  0  0  0  0  0
   -3.0842   27.0479   13.7207 C   0  0  0  0  0  0  0  0  0  0  0  0
   -4.3914   26.3257   13.5801 N   0  0  0  0  0  0  0  0  0  0  0  0
   -1.6816   26.3933    8.5386 C   0  0  0  0  0  0  0  0  0  0  0  0
   -2.9066   26.9192    9.2260 C   0  0  0  0  0  0  0  0  0  0  0  0
   -2.9658   26.9621   10.7243 C   0  0  0  0  0  0  0  0  0  0  0  0
   -1.7999   26.4791   11.5350 C   0  0  0  0  0  0  0  0  0  0  0  0
   -0.5749   25.9532   10.8476 C   0  0  0  0  0  0  0  0  0  0  0  0
   -0.5157   25.9103    9.3494 C   0  0  0  0  0  0  0  0  0  0  0  0
    0.5911   25.4702   11.6584 C   0  0  0  0  0  0  0  0  0  0  0  0
    0.5319   25.5130   13.1566 C   0  0  0  0  0  0  0  0  0  0  0  0
   -0.6933   26.0390   13.8440 C   0  0  0  0  0  0  0  0  0  0  0  0
   -1.8591   26.5220   13.0333 C   0  0  0  0  0  0  0  0  0  0  0  0
   -0.7525   26.0818   15.3423 O   0  0  0  0  0  0  0  0  0  0  0  0
 18 19  2  0  0  0
 19 20  1  0  0  0
 20 21  2  0  0  0
 21 22  1  0  0  0
 22 23  2  0  0  0
 22 24  1  0  0  0
 24 25  2  0  0  0
 25 26  1  0  0  0
 26 27  2  0  0  0
 27 16  1  0  0  0
 16 17  2  0  0  0
 17  1  1  0  0  0
  1  2  2  0  0  0
  2  3  1  0  0  0
  3  4  2  0  0  0
  4  5  1  0  0  0
  5  6  2  0  0  0
  5  7  1  0  0  0
  7  8  2  0  0  0
  8  9  1  0  0  0
  9 10  2  0  0  0
 10 11  1  0  0  0
 11 12  2  0  0  0
 12 13  1  0  0  0
 13 14  2  0  0  0
 14 15  1  0  0  0
 26 28  1  0  0  0
 23 18  1  0  0  0
 27 21  1  0  0  0
  6  1  1  0  0  0
 15  7  1  0  0  0
 14  9  1  0  0  0
M  CHG 1  17   1
M  END
> <minimizedAffinity>
-9.98254

$$$$



 23 24  0  0  0  0  0  0  0  0999 V2000
   -7.2318   27.0970   13.5062 N   0  0  0  0  0  0  0  0  0  0  0  0
   -8.0767   26.0421   14.1566 C   0  0  0  0  0  0  0  0  0  0  0  0
   -7.4281   24.8486   14.7930 O   0  0  0  0  0  0  0  0  0  0  0  0
   -9.5702   26.1806   14.1707 N   0  0  0  0  0  0  0  0  0  0  0  0
  -10.4152   25.1256   14.8212 C   0  0  0  0  0  0  0  0  0  0  0  0
   -9.8286   24.2449   15.8843 C   0  0  0  0  0  0  0  0  0  0  0  0
  -10.6735   23.1899   16.5347 C   0  0  0  0  0  0  0  0  0  0  0  0
  -12.1051   23.0156   16.1221 C   0  0  0  0  0  0  0  0  0  0  0  0
  -12.6917   23.8964   15.0590 C   0  0  0  0  0  0  0  0  0  0  0  0
  -11.8468   24.9514   14.4085 C   0  0  0  0  0  0  0  0  0  0  0  0
  -14.1233   23.7221   14.6463 Cl  0  0  0  0  0  0  0  0  0  0  0  0
  -10.0869   22.3091   17.5979 Cl  0  0  0  0  0  0  0  0  0  0  0  0
   -4.8886   27.9183   14.2711 C   0  0  0  0  0  0  0  0  0  0  0  0
   -3.3951   27.7798   14.2570 C   0  0  0  0  0  0  0  0  0  0  0  0
   -2.7512   26.6814   13.4639 C   0  0  0  0  0  0  0  0  0  0  0  0
   -3.6008   25.7216   12.6849 C   0  0  0  0  0  0  0  0  0  0  0  0
   -5.0943   25.8601   12.6990 C   0  0  0  0  0  0  0  0  0  0  0  0
   -5.7382   26.9585   13.4921 C   0  0  0  0  0  0  0  0  0  0  0  0
   -1.2577   26.5428   13.4498 Cl  0  0  0  0  0  0  0  0  0  0  0  0
   -2.9570   24.6232   11.8918 C   0  0  0  0  0  0  0  0  0  0  0  0
   -2.3131   23.5248   11.0987 F   0  0  0  0  0  0  0  0  0  0  0  0
   -3.1032   23.6939   13.0602 F   0  0  0  0  0  0  0  0  0  0  0  0
   -2.8107   25.5525   10.7235 F   0  0  0  0  0  0  0  0  0  0  0  0
 13 14  2  0  0  0
 14 15  1  0  0  0
 15 16  2  0  0  0
 16 17  1  0  0  0
 17 18  2  0  0  0
 18  1  1  0  0  0
  1  2  1  0  0  0
  2  3  2  0  0  0
  2  4  1  0  0  0
  4  5  1  0  0  0
  5  6  2  0  0  0
  6  7  1  0  0  0
  7  8  2  0  0  0
  8  9  1  0  0  0
  9 10  2  0  0  0
  9 11  1  0  0  0
  7 12  1  0  0  0
 16 20  1  0  0  0
 20 21  1  0  0  0
 20 22  1  0  0  0
 20 23  1  0  0  0
 15 19  1  0  0  0
 18 13  1  0  0  0
 10  5  1  0  0  0
M  END
> <minimizedAffinity>
-8.23790

$$$$
